*----------------------------------------------------------------------
* SPICE Model generated by Murata Manufacturing Co., Ltd.
* Copyright(C) Murata Manufacturing Co., Ltd.
* Description :0603M(0201)/C0G/100pF/50V
* Murata P/N :GRM0335C1H101JA01
* Property : C = 100[pF]
* Data Generated on Jan 10, 2017
*----------------------------------------------------------------------
* Applicable Conditions:
*   Frequency Range = 100MHz-8.5GHz
*   Temperature = 25 degC
*   DC Bias Voltage = 0V
*   Small Signal Operation
*----------------------------------------------------------------------
.SUBCKT GRM0335C1H101JA01_DC0V_25degC port1 port2
C1 port1 11 10.0e-11
L2 11 12 1.82e-10
R3 12 13 1.11e-1
L4 13 14 1.42e-11
R4 13 14 8.01e-2
C5 14 15 8.18e-10
L5 14 15 5.66e-12
R5 14 15 2.81e-1
C6 15 16 1.93e-10
L6 15 16 1.09e-11
R6 15 16 8.44e-1
C7 16 17 1.29e-11
L7 16 17 3.09e-11
R7 16 17 2.89
C8 17 port2 7.88e-12
L8 17 port2 3.35e-11
R8 17 port2 1.00e+5
R100 port1 11 1.00e+10
.ENDS GRM0335C1H101JA01_DC0V_25degC