* Extracted by KLayout with SG13G2 LVS runset on : 03/05/2024 03:51

* cell padring
* pin PAD,RES
* pin CK4,PAD
* pin CK5,PAD
* pin CK6,PAD
* pin IOVDD
* pin AVDD,IOVDD
* pin CORE
* pin CORE
* pin VDD
* pin CORE
* pin CORE
* pin res_c
* pin ck4_c
* pin ck5_c
* pin ck6_c
* pin IN6,PAD
* pin OUT6
* pin out6_c
* pin CORE,in6_c
* pin IN5,PAD
* pin OUT5
* pin out5_c
* pin CORE,in5_c
* pin IN4,PAD
* pin OUT4
* pin out4_c
* pin CORE,in4_c
* pin PAD,VLO
* pin CORE
* pin PAD,VHI
* pin CORE
* pin IN3,PAD
* pin OUT3
* pin out3_c
* pin CORE,in3_c
* pin IN2,PAD
* pin OUT2
* pin out2_c
* pin CORE,in2_c
* pin IN1,PAD
* pin OUT1
* pin out1_c
* pin CORE,in1_c
* pin PAD,VREF
* pin CORE,vref_c
* pin PAD,VLDO
* pin CORE
* pin ck3_c
* pin ck2_c
* pin ck1_c
* pin CORE
* pin CORE
* pin CORE
* pin CK3,PAD
* pin CK2,PAD
* pin CK1,PAD
* pin IOVSS,VSS
.SUBCKT padring PAD|RES CK4|PAD CK5|PAD CK6|PAD IOVDD AVDD|IOVDD CORE CORE$1
+ VDD CORE$2 CORE$3 res_c ck4_c ck5_c ck6_c IN6|PAD OUT6 out6_c CORE|in6_c
+ IN5|PAD OUT5 out5_c CORE|in5_c IN4|PAD OUT4 out4_c CORE|in4_c PAD|VLO CORE$4
+ PAD|VHI CORE$5 IN3|PAD OUT3 out3_c CORE|in3_c IN2|PAD OUT2 out2_c CORE|in2_c
+ IN1|PAD OUT1 out1_c CORE|in1_c PAD|VREF CORE|vref_c PAD|VLDO CORE$6 ck3_c
+ ck2_c ck1_c CORE$7 CORE$8 CORE$9 CK3|PAD CK2|PAD CK1|PAD IOVSS|VSS
* device instance $1 r0 *1 240.255,159.005 sg13_lv_nmos
M$1 res_c \$178 IOVSS|VSS IOVSS|VSS sg13_lv_nmos W=2.7499999999999996
+ L=0.12999999999999995
* device instance $2 r0 *1 440.255,159.005 sg13_lv_nmos
M$2 ck4_c \$179 IOVSS|VSS IOVSS|VSS sg13_lv_nmos W=2.7499999999999996
+ L=0.12999999999999995
* device instance $3 r0 *1 540.255,159.005 sg13_lv_nmos
M$3 ck5_c \$180 IOVSS|VSS IOVSS|VSS sg13_lv_nmos W=2.7499999999999996
+ L=0.12999999999999995
* device instance $4 r0 *1 640.255,159.005 sg13_lv_nmos
M$4 ck6_c \$181 IOVSS|VSS IOVSS|VSS sg13_lv_nmos W=2.7499999999999996
+ L=0.12999999999999995
* device instance $5 r0 *1 800.995,217.48 sg13_lv_nmos
M$5 \$227 out6_c IOVSS|VSS IOVSS|VSS sg13_lv_nmos W=2.7499999999999996
+ L=0.12999999999999995
* device instance $6 r0 *1 800.995,220.99 sg13_lv_nmos
M$6 \$255 out6_c IOVSS|VSS IOVSS|VSS sg13_lv_nmos W=2.7499999999999996
+ L=0.12999999999999995
* device instance $7 r0 *1 800.995,317.48 sg13_lv_nmos
M$7 \$338 out5_c IOVSS|VSS IOVSS|VSS sg13_lv_nmos W=2.7499999999999996
+ L=0.12999999999999995
* device instance $8 r0 *1 800.995,320.99 sg13_lv_nmos
M$8 \$366 out5_c IOVSS|VSS IOVSS|VSS sg13_lv_nmos W=2.7499999999999996
+ L=0.12999999999999995
* device instance $9 r0 *1 800.995,417.48 sg13_lv_nmos
M$9 \$449 out4_c IOVSS|VSS IOVSS|VSS sg13_lv_nmos W=2.7499999999999996
+ L=0.12999999999999995
* device instance $10 r0 *1 800.995,420.99 sg13_lv_nmos
M$10 \$477 out4_c IOVSS|VSS IOVSS|VSS sg13_lv_nmos W=2.7499999999999996
+ L=0.12999999999999995
* device instance $11 r0 *1 800.995,717.48 sg13_lv_nmos
M$11 \$758 out3_c IOVSS|VSS IOVSS|VSS sg13_lv_nmos W=2.7499999999999996
+ L=0.12999999999999995
* device instance $12 r0 *1 800.995,720.99 sg13_lv_nmos
M$12 \$786 out3_c IOVSS|VSS IOVSS|VSS sg13_lv_nmos W=2.7499999999999996
+ L=0.12999999999999995
* device instance $13 r0 *1 800.995,817.48 sg13_lv_nmos
M$13 \$869 out2_c IOVSS|VSS IOVSS|VSS sg13_lv_nmos W=2.7499999999999996
+ L=0.12999999999999995
* device instance $14 r0 *1 800.995,820.99 sg13_lv_nmos
M$14 \$897 out2_c IOVSS|VSS IOVSS|VSS sg13_lv_nmos W=2.7499999999999996
+ L=0.12999999999999995
* device instance $15 r0 *1 800.995,917.48 sg13_lv_nmos
M$15 \$980 out1_c IOVSS|VSS IOVSS|VSS sg13_lv_nmos W=2.7499999999999996
+ L=0.12999999999999995
* device instance $16 r0 *1 800.995,920.99 sg13_lv_nmos
M$16 \$1008 out1_c IOVSS|VSS IOVSS|VSS sg13_lv_nmos W=2.7499999999999996
+ L=0.12999999999999995
* device instance $17 r0 *1 440.255,980.995 sg13_lv_nmos
M$17 ck3_c \$1075 IOVSS|VSS IOVSS|VSS sg13_lv_nmos W=2.7499999999999996
+ L=0.12999999999999995
* device instance $18 r0 *1 540.255,980.995 sg13_lv_nmos
M$18 ck2_c \$1076 IOVSS|VSS IOVSS|VSS sg13_lv_nmos W=2.7499999999999996
+ L=0.12999999999999995
* device instance $19 r0 *1 640.255,980.995 sg13_lv_nmos
M$19 ck1_c \$1077 IOVSS|VSS IOVSS|VSS sg13_lv_nmos W=2.7499999999999996
+ L=0.12999999999999995
* device instance $20 r0 *1 241.765,159.055 sg13_hv_nmos
M$20 IOVSS|VSS CORE \$178 IOVSS|VSS sg13_hv_nmos W=2.6499999999999995
+ L=0.4499999999999999
* device instance $21 r0 *1 441.765,159.055 sg13_hv_nmos
M$21 IOVSS|VSS CORE$1 \$179 IOVSS|VSS sg13_hv_nmos W=2.6499999999999995
+ L=0.4499999999999999
* device instance $22 r0 *1 541.765,159.055 sg13_hv_nmos
M$22 IOVSS|VSS CORE$2 \$180 IOVSS|VSS sg13_hv_nmos W=2.6499999999999995
+ L=0.4499999999999999
* device instance $23 r0 *1 641.765,159.055 sg13_hv_nmos
M$23 IOVSS|VSS CORE$3 \$181 IOVSS|VSS sg13_hv_nmos W=2.6499999999999995
+ L=0.4499999999999999
* device instance $24 r0 *1 -169.05,205.52 sg13_hv_nmos
M$24 IOVSS|VSS \$217 IN6|PAD IOVSS|VSS sg13_hv_nmos W=88.00000000000001
+ L=0.5999999999999998
* device instance $44 r0 *1 949.05,214.58 sg13_hv_nmos
M$44 IOVSS|VSS \$244 OUT6 IOVSS|VSS sg13_hv_nmos W=35.199999999999996
+ L=0.5999999999999998
* device instance $52 r0 *1 804.68,217.64 sg13_hv_nmos
M$52 \$228 out6_c IOVSS|VSS IOVSS|VSS sg13_hv_nmos W=1.8999999999999997
+ L=0.4499999999999999
* device instance $53 r0 *1 804.68,218.47 sg13_hv_nmos
M$53 IOVSS|VSS \$227 \$238 IOVSS|VSS sg13_hv_nmos W=1.8999999999999997
+ L=0.4499999999999999
* device instance $54 r0 *1 804.68,219.81 sg13_hv_nmos
M$54 IOVSS|VSS \$238 \$244 IOVSS|VSS sg13_hv_nmos W=1.8999999999999997
+ L=0.4499999999999999
* device instance $55 r0 *1 804.68,221.15 sg13_hv_nmos
M$55 \$256 out6_c IOVSS|VSS IOVSS|VSS sg13_hv_nmos W=1.8999999999999997
+ L=0.4499999999999999
* device instance $56 r0 *1 804.68,221.98 sg13_hv_nmos
M$56 IOVSS|VSS \$255 \$263 IOVSS|VSS sg13_hv_nmos W=1.8999999999999997
+ L=0.4499999999999999
* device instance $57 r0 *1 804.68,223.32 sg13_hv_nmos
M$57 IOVSS|VSS \$263 \$208 IOVSS|VSS sg13_hv_nmos W=1.8999999999999997
+ L=0.4499999999999999
* device instance $58 r0 *1 -169.05,305.52 sg13_hv_nmos
M$58 IOVSS|VSS \$328 IN5|PAD IOVSS|VSS sg13_hv_nmos W=88.00000000000001
+ L=0.5999999999999998
* device instance $78 r0 *1 949.05,314.58 sg13_hv_nmos
M$78 IOVSS|VSS \$355 OUT5 IOVSS|VSS sg13_hv_nmos W=35.199999999999996
+ L=0.5999999999999998
* device instance $86 r0 *1 804.68,317.64 sg13_hv_nmos
M$86 \$339 out5_c IOVSS|VSS IOVSS|VSS sg13_hv_nmos W=1.8999999999999997
+ L=0.4499999999999999
* device instance $87 r0 *1 804.68,318.47 sg13_hv_nmos
M$87 IOVSS|VSS \$338 \$349 IOVSS|VSS sg13_hv_nmos W=1.8999999999999997
+ L=0.4499999999999999
* device instance $88 r0 *1 804.68,319.81 sg13_hv_nmos
M$88 IOVSS|VSS \$349 \$355 IOVSS|VSS sg13_hv_nmos W=1.8999999999999997
+ L=0.4499999999999999
* device instance $89 r0 *1 804.68,321.15 sg13_hv_nmos
M$89 \$367 out5_c IOVSS|VSS IOVSS|VSS sg13_hv_nmos W=1.8999999999999997
+ L=0.4499999999999999
* device instance $90 r0 *1 804.68,321.98 sg13_hv_nmos
M$90 IOVSS|VSS \$366 \$374 IOVSS|VSS sg13_hv_nmos W=1.8999999999999997
+ L=0.4499999999999999
* device instance $91 r0 *1 804.68,323.32 sg13_hv_nmos
M$91 IOVSS|VSS \$374 \$319 IOVSS|VSS sg13_hv_nmos W=1.8999999999999997
+ L=0.4499999999999999
* device instance $92 r0 *1 -169.05,405.52 sg13_hv_nmos
M$92 IOVSS|VSS \$439 IN4|PAD IOVSS|VSS sg13_hv_nmos W=88.00000000000001
+ L=0.5999999999999998
* device instance $112 r0 *1 949.05,414.58 sg13_hv_nmos
M$112 IOVSS|VSS \$466 OUT4 IOVSS|VSS sg13_hv_nmos W=35.199999999999996
+ L=0.5999999999999998
* device instance $120 r0 *1 804.68,417.64 sg13_hv_nmos
M$120 \$450 out4_c IOVSS|VSS IOVSS|VSS sg13_hv_nmos W=1.8999999999999997
+ L=0.4499999999999999
* device instance $121 r0 *1 804.68,418.47 sg13_hv_nmos
M$121 IOVSS|VSS \$449 \$460 IOVSS|VSS sg13_hv_nmos W=1.8999999999999997
+ L=0.4499999999999999
* device instance $122 r0 *1 804.68,419.81 sg13_hv_nmos
M$122 IOVSS|VSS \$460 \$466 IOVSS|VSS sg13_hv_nmos W=1.8999999999999997
+ L=0.4499999999999999
* device instance $123 r0 *1 804.68,421.15 sg13_hv_nmos
M$123 \$478 out4_c IOVSS|VSS IOVSS|VSS sg13_hv_nmos W=1.8999999999999997
+ L=0.4499999999999999
* device instance $124 r0 *1 804.68,421.98 sg13_hv_nmos
M$124 IOVSS|VSS \$477 \$485 IOVSS|VSS sg13_hv_nmos W=1.8999999999999997
+ L=0.4499999999999999
* device instance $125 r0 *1 804.68,423.32 sg13_hv_nmos
M$125 IOVSS|VSS \$485 \$430 IOVSS|VSS sg13_hv_nmos W=1.8999999999999997
+ L=0.4499999999999999
* device instance $126 r0 *1 -169.05,505.52 sg13_hv_nmos
M$126 IOVSS|VSS \$553 PAD|VLO IOVSS|VSS sg13_hv_nmos W=88.00000000000001
+ L=0.5999999999999998
* device instance $146 r0 *1 879.21,583.22 sg13_hv_nmos
M$146 IOVSS|VSS \$612 \$611 IOVSS|VSS sg13_hv_nmos W=107.99999999999999
+ L=0.4999999999999999
* device instance $152 r0 *1 879.21,593 sg13_hv_nmos
M$152 IOVSS|VSS \$612 IOVSS|VSS IOVSS|VSS sg13_hv_nmos W=125.99999999999999
+ L=9.499999999999996
* device instance $172 r0 *1 934.53,588.155 sg13_hv_nmos
M$172 IOVSS|VSS \$611 IOVDD IOVSS|VSS sg13_hv_nmos W=756.7999999999977
+ L=0.5999999999999998
* device instance $344 r0 *1 -169.05,605.52 sg13_hv_nmos
M$344 IOVSS|VSS \$627 PAD|VHI IOVSS|VSS sg13_hv_nmos W=88.00000000000001
+ L=0.5999999999999998
* device instance $364 r0 *1 -169.05,705.52 sg13_hv_nmos
M$364 IOVSS|VSS \$748 IN3|PAD IOVSS|VSS sg13_hv_nmos W=88.00000000000001
+ L=0.5999999999999998
* device instance $384 r0 *1 949.05,714.58 sg13_hv_nmos
M$384 IOVSS|VSS \$775 OUT3 IOVSS|VSS sg13_hv_nmos W=35.199999999999996
+ L=0.5999999999999998
* device instance $392 r0 *1 804.68,717.64 sg13_hv_nmos
M$392 \$759 out3_c IOVSS|VSS IOVSS|VSS sg13_hv_nmos W=1.8999999999999997
+ L=0.4499999999999999
* device instance $393 r0 *1 804.68,718.47 sg13_hv_nmos
M$393 IOVSS|VSS \$758 \$769 IOVSS|VSS sg13_hv_nmos W=1.8999999999999997
+ L=0.4499999999999999
* device instance $394 r0 *1 804.68,719.81 sg13_hv_nmos
M$394 IOVSS|VSS \$769 \$775 IOVSS|VSS sg13_hv_nmos W=1.8999999999999997
+ L=0.4499999999999999
* device instance $395 r0 *1 804.68,721.15 sg13_hv_nmos
M$395 \$787 out3_c IOVSS|VSS IOVSS|VSS sg13_hv_nmos W=1.8999999999999997
+ L=0.4499999999999999
* device instance $396 r0 *1 804.68,721.98 sg13_hv_nmos
M$396 IOVSS|VSS \$786 \$794 IOVSS|VSS sg13_hv_nmos W=1.8999999999999997
+ L=0.4499999999999999
* device instance $397 r0 *1 804.68,723.32 sg13_hv_nmos
M$397 IOVSS|VSS \$794 \$739 IOVSS|VSS sg13_hv_nmos W=1.8999999999999997
+ L=0.4499999999999999
* device instance $398 r0 *1 -169.05,805.52 sg13_hv_nmos
M$398 IOVSS|VSS \$859 IN2|PAD IOVSS|VSS sg13_hv_nmos W=88.00000000000001
+ L=0.5999999999999998
* device instance $418 r0 *1 949.05,814.58 sg13_hv_nmos
M$418 IOVSS|VSS \$886 OUT2 IOVSS|VSS sg13_hv_nmos W=35.199999999999996
+ L=0.5999999999999998
* device instance $426 r0 *1 804.68,817.64 sg13_hv_nmos
M$426 \$870 out2_c IOVSS|VSS IOVSS|VSS sg13_hv_nmos W=1.8999999999999997
+ L=0.4499999999999999
* device instance $427 r0 *1 804.68,818.47 sg13_hv_nmos
M$427 IOVSS|VSS \$869 \$880 IOVSS|VSS sg13_hv_nmos W=1.8999999999999997
+ L=0.4499999999999999
* device instance $428 r0 *1 804.68,819.81 sg13_hv_nmos
M$428 IOVSS|VSS \$880 \$886 IOVSS|VSS sg13_hv_nmos W=1.8999999999999997
+ L=0.4499999999999999
* device instance $429 r0 *1 804.68,821.15 sg13_hv_nmos
M$429 \$898 out2_c IOVSS|VSS IOVSS|VSS sg13_hv_nmos W=1.8999999999999997
+ L=0.4499999999999999
* device instance $430 r0 *1 804.68,821.98 sg13_hv_nmos
M$430 IOVSS|VSS \$897 \$905 IOVSS|VSS sg13_hv_nmos W=1.8999999999999997
+ L=0.4499999999999999
* device instance $431 r0 *1 804.68,823.32 sg13_hv_nmos
M$431 IOVSS|VSS \$905 \$850 IOVSS|VSS sg13_hv_nmos W=1.8999999999999997
+ L=0.4499999999999999
* device instance $432 r0 *1 -169.05,905.52 sg13_hv_nmos
M$432 IOVSS|VSS \$970 IN1|PAD IOVSS|VSS sg13_hv_nmos W=88.00000000000001
+ L=0.5999999999999998
* device instance $452 r0 *1 949.05,914.58 sg13_hv_nmos
M$452 IOVSS|VSS \$997 OUT1 IOVSS|VSS sg13_hv_nmos W=35.199999999999996
+ L=0.5999999999999998
* device instance $460 r0 *1 804.68,917.64 sg13_hv_nmos
M$460 \$981 out1_c IOVSS|VSS IOVSS|VSS sg13_hv_nmos W=1.8999999999999997
+ L=0.4499999999999999
* device instance $461 r0 *1 804.68,918.47 sg13_hv_nmos
M$461 IOVSS|VSS \$980 \$991 IOVSS|VSS sg13_hv_nmos W=1.8999999999999997
+ L=0.4499999999999999
* device instance $462 r0 *1 804.68,919.81 sg13_hv_nmos
M$462 IOVSS|VSS \$991 \$997 IOVSS|VSS sg13_hv_nmos W=1.8999999999999997
+ L=0.4499999999999999
* device instance $463 r0 *1 804.68,921.15 sg13_hv_nmos
M$463 \$1009 out1_c IOVSS|VSS IOVSS|VSS sg13_hv_nmos W=1.8999999999999997
+ L=0.4499999999999999
* device instance $464 r0 *1 804.68,921.98 sg13_hv_nmos
M$464 IOVSS|VSS \$1008 \$1016 IOVSS|VSS sg13_hv_nmos W=1.8999999999999997
+ L=0.4499999999999999
* device instance $465 r0 *1 804.68,923.32 sg13_hv_nmos
M$465 IOVSS|VSS \$1016 \$961 IOVSS|VSS sg13_hv_nmos W=1.8999999999999997
+ L=0.4499999999999999
* device instance $466 r0 *1 441.765,980.945 sg13_hv_nmos
M$466 IOVSS|VSS CORE$7 \$1075 IOVSS|VSS sg13_hv_nmos W=2.6499999999999995
+ L=0.4499999999999999
* device instance $467 r0 *1 541.765,980.945 sg13_hv_nmos
M$467 IOVSS|VSS CORE$8 \$1076 IOVSS|VSS sg13_hv_nmos W=2.6499999999999995
+ L=0.4499999999999999
* device instance $468 r0 *1 641.765,980.945 sg13_hv_nmos
M$468 IOVSS|VSS CORE$9 \$1077 IOVSS|VSS sg13_hv_nmos W=2.6499999999999995
+ L=0.4499999999999999
* device instance $469 r0 *1 3.22,1059.21 sg13_hv_nmos
M$469 IOVSS|VSS \$1200 \$1141 IOVSS|VSS sg13_hv_nmos W=107.99999999999999
+ L=0.4999999999999999
* device instance $475 r0 *1 13,1059.21 sg13_hv_nmos
M$475 IOVSS|VSS \$1200 IOVSS|VSS IOVSS|VSS sg13_hv_nmos W=125.99999999999999
+ L=9.499999999999996
* device instance $482 r0 *1 303.22,1059.21 sg13_hv_nmos
M$482 IOVSS|VSS \$1201 \$1142 IOVSS|VSS sg13_hv_nmos W=107.99999999999999
+ L=0.4999999999999999
* device instance $488 r0 *1 313,1059.21 sg13_hv_nmos
M$488 IOVSS|VSS \$1201 IOVSS|VSS IOVSS|VSS sg13_hv_nmos W=125.99999999999999
+ L=9.499999999999996
* device instance $495 r0 *1 703.22,1059.21 sg13_hv_nmos
M$495 IOVSS|VSS \$1202 \$1143 IOVSS|VSS sg13_hv_nmos W=107.99999999999999
+ L=0.4999999999999999
* device instance $501 r0 *1 713,1059.21 sg13_hv_nmos
M$501 IOVSS|VSS \$1202 IOVSS|VSS IOVSS|VSS sg13_hv_nmos W=125.99999999999999
+ L=9.499999999999996
* device instance $547 r0 *1 8.155,1114.53 sg13_hv_nmos
M$547 IOVSS|VSS \$1141 \$1392 IOVSS|VSS sg13_hv_nmos W=35.199999999999996
+ L=0.5999999999999998
* device instance $549 r0 *1 11.175,1114.53 sg13_hv_nmos
M$549 IOVSS|VSS \$1141 \$1393 IOVSS|VSS sg13_hv_nmos W=35.199999999999996
+ L=0.5999999999999998
* device instance $551 r0 *1 14.195,1114.53 sg13_hv_nmos
M$551 IOVSS|VSS \$1141 \$1394 IOVSS|VSS sg13_hv_nmos W=35.199999999999996
+ L=0.5999999999999998
* device instance $553 r0 *1 17.215,1114.53 sg13_hv_nmos
M$553 IOVSS|VSS \$1141 \$1395 IOVSS|VSS sg13_hv_nmos W=35.199999999999996
+ L=0.5999999999999998
* device instance $555 r0 *1 20.235,1114.53 sg13_hv_nmos
M$555 IOVSS|VSS \$1141 \$1396 IOVSS|VSS sg13_hv_nmos W=35.199999999999996
+ L=0.5999999999999998
* device instance $557 r0 *1 23.255,1114.53 sg13_hv_nmos
M$557 IOVSS|VSS \$1141 \$1397 IOVSS|VSS sg13_hv_nmos W=35.199999999999996
+ L=0.5999999999999998
* device instance $559 r0 *1 26.275,1114.53 sg13_hv_nmos
M$559 IOVSS|VSS \$1141 \$1398 IOVSS|VSS sg13_hv_nmos W=35.199999999999996
+ L=0.5999999999999998
* device instance $561 r0 *1 29.295,1114.53 sg13_hv_nmos
M$561 IOVSS|VSS \$1141 \$1399 IOVSS|VSS sg13_hv_nmos W=35.199999999999996
+ L=0.5999999999999998
* device instance $563 r0 *1 32.315,1114.53 sg13_hv_nmos
M$563 IOVSS|VSS \$1141 \$1400 IOVSS|VSS sg13_hv_nmos W=35.199999999999996
+ L=0.5999999999999998
* device instance $565 r0 *1 35.335,1114.53 sg13_hv_nmos
M$565 IOVSS|VSS \$1141 \$1401 IOVSS|VSS sg13_hv_nmos W=35.199999999999996
+ L=0.5999999999999998
* device instance $567 r0 *1 38.355,1114.53 sg13_hv_nmos
M$567 IOVSS|VSS \$1141 \$1402 IOVSS|VSS sg13_hv_nmos W=35.199999999999996
+ L=0.5999999999999998
* device instance $569 r0 *1 41.375,1114.53 sg13_hv_nmos
M$569 IOVSS|VSS \$1141 \$1403 IOVSS|VSS sg13_hv_nmos W=35.199999999999996
+ L=0.5999999999999998
* device instance $571 r0 *1 44.395,1114.53 sg13_hv_nmos
M$571 IOVSS|VSS \$1141 \$1404 IOVSS|VSS sg13_hv_nmos W=35.199999999999996
+ L=0.5999999999999998
* device instance $573 r0 *1 47.415,1114.53 sg13_hv_nmos
M$573 IOVSS|VSS \$1141 \$1405 IOVSS|VSS sg13_hv_nmos W=35.199999999999996
+ L=0.5999999999999998
* device instance $575 r0 *1 50.435,1114.53 sg13_hv_nmos
M$575 IOVSS|VSS \$1141 \$1406 IOVSS|VSS sg13_hv_nmos W=35.199999999999996
+ L=0.5999999999999998
* device instance $577 r0 *1 53.455,1114.53 sg13_hv_nmos
M$577 IOVSS|VSS \$1141 \$1407 IOVSS|VSS sg13_hv_nmos W=35.199999999999996
+ L=0.5999999999999998
* device instance $579 r0 *1 56.475,1114.53 sg13_hv_nmos
M$579 IOVSS|VSS \$1141 \$1408 IOVSS|VSS sg13_hv_nmos W=35.199999999999996
+ L=0.5999999999999998
* device instance $581 r0 *1 59.495,1114.53 sg13_hv_nmos
M$581 IOVSS|VSS \$1141 \$1409 IOVSS|VSS sg13_hv_nmos W=35.199999999999996
+ L=0.5999999999999998
* device instance $583 r0 *1 62.515,1114.53 sg13_hv_nmos
M$583 IOVSS|VSS \$1141 \$1410 IOVSS|VSS sg13_hv_nmos W=35.199999999999996
+ L=0.5999999999999998
* device instance $585 r0 *1 65.535,1114.53 sg13_hv_nmos
M$585 IOVSS|VSS \$1141 \$1411 IOVSS|VSS sg13_hv_nmos W=35.199999999999996
+ L=0.5999999999999998
* device instance $587 r0 *1 68.555,1114.53 sg13_hv_nmos
M$587 IOVSS|VSS \$1141 \$1412 IOVSS|VSS sg13_hv_nmos W=35.199999999999996
+ L=0.5999999999999998
* device instance $589 r0 *1 71.575,1114.53 sg13_hv_nmos
M$589 IOVSS|VSS \$1141 \$1413 IOVSS|VSS sg13_hv_nmos W=17.599999999999998
+ L=0.5999999999999998
* device instance $590 r0 *1 308.155,1114.53 sg13_hv_nmos
M$590 IOVSS|VSS \$1142 IOVDD IOVSS|VSS sg13_hv_nmos W=756.7999999999977
+ L=0.5999999999999998
* device instance $633 r0 *1 708.155,1114.53 sg13_hv_nmos
M$633 IOVSS|VSS \$1143 \$1414 IOVSS|VSS sg13_hv_nmos W=35.199999999999996
+ L=0.5999999999999998
* device instance $635 r0 *1 711.175,1114.53 sg13_hv_nmos
M$635 IOVSS|VSS \$1143 \$1415 IOVSS|VSS sg13_hv_nmos W=35.199999999999996
+ L=0.5999999999999998
* device instance $637 r0 *1 714.195,1114.53 sg13_hv_nmos
M$637 IOVSS|VSS \$1143 \$1416 IOVSS|VSS sg13_hv_nmos W=35.199999999999996
+ L=0.5999999999999998
* device instance $639 r0 *1 717.215,1114.53 sg13_hv_nmos
M$639 IOVSS|VSS \$1143 \$1417 IOVSS|VSS sg13_hv_nmos W=35.199999999999996
+ L=0.5999999999999998
* device instance $641 r0 *1 720.235,1114.53 sg13_hv_nmos
M$641 IOVSS|VSS \$1143 \$1418 IOVSS|VSS sg13_hv_nmos W=35.199999999999996
+ L=0.5999999999999998
* device instance $643 r0 *1 723.255,1114.53 sg13_hv_nmos
M$643 IOVSS|VSS \$1143 \$1419 IOVSS|VSS sg13_hv_nmos W=35.199999999999996
+ L=0.5999999999999998
* device instance $645 r0 *1 726.275,1114.53 sg13_hv_nmos
M$645 IOVSS|VSS \$1143 \$1420 IOVSS|VSS sg13_hv_nmos W=35.199999999999996
+ L=0.5999999999999998
* device instance $647 r0 *1 729.295,1114.53 sg13_hv_nmos
M$647 IOVSS|VSS \$1143 \$1421 IOVSS|VSS sg13_hv_nmos W=35.199999999999996
+ L=0.5999999999999998
* device instance $649 r0 *1 732.315,1114.53 sg13_hv_nmos
M$649 IOVSS|VSS \$1143 \$1422 IOVSS|VSS sg13_hv_nmos W=35.199999999999996
+ L=0.5999999999999998
* device instance $651 r0 *1 735.335,1114.53 sg13_hv_nmos
M$651 IOVSS|VSS \$1143 \$1423 IOVSS|VSS sg13_hv_nmos W=35.199999999999996
+ L=0.5999999999999998
* device instance $653 r0 *1 738.355,1114.53 sg13_hv_nmos
M$653 IOVSS|VSS \$1143 \$1424 IOVSS|VSS sg13_hv_nmos W=35.199999999999996
+ L=0.5999999999999998
* device instance $655 r0 *1 741.375,1114.53 sg13_hv_nmos
M$655 IOVSS|VSS \$1143 \$1425 IOVSS|VSS sg13_hv_nmos W=35.199999999999996
+ L=0.5999999999999998
* device instance $657 r0 *1 744.395,1114.53 sg13_hv_nmos
M$657 IOVSS|VSS \$1143 \$1426 IOVSS|VSS sg13_hv_nmos W=35.199999999999996
+ L=0.5999999999999998
* device instance $659 r0 *1 747.415,1114.53 sg13_hv_nmos
M$659 IOVSS|VSS \$1143 \$1427 IOVSS|VSS sg13_hv_nmos W=35.199999999999996
+ L=0.5999999999999998
* device instance $661 r0 *1 750.435,1114.53 sg13_hv_nmos
M$661 IOVSS|VSS \$1143 \$1428 IOVSS|VSS sg13_hv_nmos W=35.199999999999996
+ L=0.5999999999999998
* device instance $663 r0 *1 753.455,1114.53 sg13_hv_nmos
M$663 IOVSS|VSS \$1143 \$1429 IOVSS|VSS sg13_hv_nmos W=35.199999999999996
+ L=0.5999999999999998
* device instance $665 r0 *1 756.475,1114.53 sg13_hv_nmos
M$665 IOVSS|VSS \$1143 \$1430 IOVSS|VSS sg13_hv_nmos W=35.199999999999996
+ L=0.5999999999999998
* device instance $667 r0 *1 759.495,1114.53 sg13_hv_nmos
M$667 IOVSS|VSS \$1143 \$1431 IOVSS|VSS sg13_hv_nmos W=35.199999999999996
+ L=0.5999999999999998
* device instance $669 r0 *1 762.515,1114.53 sg13_hv_nmos
M$669 IOVSS|VSS \$1143 \$1432 IOVSS|VSS sg13_hv_nmos W=35.199999999999996
+ L=0.5999999999999998
* device instance $671 r0 *1 765.535,1114.53 sg13_hv_nmos
M$671 IOVSS|VSS \$1143 \$1433 IOVSS|VSS sg13_hv_nmos W=35.199999999999996
+ L=0.5999999999999998
* device instance $673 r0 *1 768.555,1114.53 sg13_hv_nmos
M$673 IOVSS|VSS \$1143 \$1434 IOVSS|VSS sg13_hv_nmos W=35.199999999999996
+ L=0.5999999999999998
* device instance $675 r0 *1 771.575,1114.53 sg13_hv_nmos
M$675 IOVSS|VSS \$1143 \$1435 IOVSS|VSS sg13_hv_nmos W=17.599999999999998
+ L=0.5999999999999998
* device instance $977 r0 *1 125.52,1129.05 sg13_hv_nmos
M$977 IOVSS|VSS \$1473 PAD|VREF IOVSS|VSS sg13_hv_nmos W=88.00000000000001
+ L=0.5999999999999998
* device instance $997 r0 *1 225.52,1129.05 sg13_hv_nmos
M$997 IOVSS|VSS \$1474 PAD|VLDO IOVSS|VSS sg13_hv_nmos W=88.00000000000001
+ L=0.5999999999999998
* device instance $1103 r0 *1 240.255,163.995 sg13_lv_pmos
M$1103 res_c \$178 VDD VDD sg13_lv_pmos W=4.749999999999999
+ L=0.12999999999999998
* device instance $1104 r0 *1 440.255,163.995 sg13_lv_pmos
M$1104 ck4_c \$179 VDD VDD sg13_lv_pmos W=4.749999999999999
+ L=0.12999999999999998
* device instance $1105 r0 *1 540.255,163.995 sg13_lv_pmos
M$1105 ck5_c \$180 VDD VDD sg13_lv_pmos W=4.749999999999999
+ L=0.12999999999999998
* device instance $1106 r0 *1 640.255,163.995 sg13_lv_pmos
M$1106 ck6_c \$181 VDD VDD sg13_lv_pmos W=4.749999999999999
+ L=0.12999999999999998
* device instance $1107 r0 *1 796.005,217.48 sg13_lv_pmos
M$1107 \$227 out6_c VDD VDD sg13_lv_pmos W=4.749999999999999
+ L=0.12999999999999998
* device instance $1108 r0 *1 796.005,220.99 sg13_lv_pmos
M$1108 \$255 out6_c VDD VDD sg13_lv_pmos W=4.749999999999999
+ L=0.12999999999999998
* device instance $1109 r0 *1 796.005,317.48 sg13_lv_pmos
M$1109 \$338 out5_c VDD VDD sg13_lv_pmos W=4.749999999999999
+ L=0.12999999999999998
* device instance $1110 r0 *1 796.005,320.99 sg13_lv_pmos
M$1110 \$366 out5_c VDD VDD sg13_lv_pmos W=4.749999999999999
+ L=0.12999999999999998
* device instance $1111 r0 *1 796.005,417.48 sg13_lv_pmos
M$1111 \$449 out4_c VDD VDD sg13_lv_pmos W=4.749999999999999
+ L=0.12999999999999998
* device instance $1112 r0 *1 796.005,420.99 sg13_lv_pmos
M$1112 \$477 out4_c VDD VDD sg13_lv_pmos W=4.749999999999999
+ L=0.12999999999999998
* device instance $1113 r0 *1 796.005,717.48 sg13_lv_pmos
M$1113 \$758 out3_c VDD VDD sg13_lv_pmos W=4.749999999999999
+ L=0.12999999999999998
* device instance $1114 r0 *1 796.005,720.99 sg13_lv_pmos
M$1114 \$786 out3_c VDD VDD sg13_lv_pmos W=4.749999999999999
+ L=0.12999999999999998
* device instance $1115 r0 *1 796.005,817.48 sg13_lv_pmos
M$1115 \$869 out2_c VDD VDD sg13_lv_pmos W=4.749999999999999
+ L=0.12999999999999998
* device instance $1116 r0 *1 796.005,820.99 sg13_lv_pmos
M$1116 \$897 out2_c VDD VDD sg13_lv_pmos W=4.749999999999999
+ L=0.12999999999999998
* device instance $1117 r0 *1 796.005,917.48 sg13_lv_pmos
M$1117 \$980 out1_c VDD VDD sg13_lv_pmos W=4.749999999999999
+ L=0.12999999999999998
* device instance $1118 r0 *1 796.005,920.99 sg13_lv_pmos
M$1118 \$1008 out1_c VDD VDD sg13_lv_pmos W=4.749999999999999
+ L=0.12999999999999998
* device instance $1119 r0 *1 440.255,976.005 sg13_lv_pmos
M$1119 ck3_c \$1075 VDD VDD sg13_lv_pmos W=4.749999999999999
+ L=0.12999999999999998
* device instance $1120 r0 *1 540.255,976.005 sg13_lv_pmos
M$1120 ck2_c \$1076 VDD VDD sg13_lv_pmos W=4.749999999999999
+ L=0.12999999999999998
* device instance $1121 r0 *1 640.255,976.005 sg13_lv_pmos
M$1121 ck1_c \$1077 VDD VDD sg13_lv_pmos W=4.749999999999999
+ L=0.12999999999999998
* device instance $1122 r0 *1 241.765,163.945 sg13_hv_pmos
M$1122 VDD CORE \$178 VDD sg13_hv_pmos W=4.6499999999999995
+ L=0.44999999999999984
* device instance $1123 r0 *1 441.765,163.945 sg13_hv_pmos
M$1123 VDD CORE$1 \$179 VDD sg13_hv_pmos W=4.6499999999999995
+ L=0.44999999999999984
* device instance $1124 r0 *1 541.765,163.945 sg13_hv_pmos
M$1124 VDD CORE$2 \$180 VDD sg13_hv_pmos W=4.6499999999999995
+ L=0.44999999999999984
* device instance $1125 r0 *1 641.765,163.945 sg13_hv_pmos
M$1125 VDD CORE$3 \$181 VDD sg13_hv_pmos W=4.6499999999999995
+ L=0.44999999999999984
* device instance $1126 r0 *1 -108.92,205.52 sg13_hv_pmos
M$1126 AVDD|IOVDD \$218 IN6|PAD AVDD|IOVDD sg13_hv_pmos W=266.3999999999999
+ L=0.5999999999999999
* device instance $1166 r0 *1 881.82,214.58 sg13_hv_pmos
M$1166 IOVDD \$208 OUT6 IOVDD sg13_hv_pmos W=106.55999999999996
+ L=0.5999999999999999
* device instance $1182 r0 *1 808.82,217.64 sg13_hv_pmos
M$1182 \$228 \$238 IOVDD IOVDD sg13_hv_pmos W=0.29999999999999993
+ L=0.44999999999999984
* device instance $1183 r0 *1 808.82,218.47 sg13_hv_pmos
M$1183 IOVDD \$228 \$238 IOVDD sg13_hv_pmos W=0.29999999999999993
+ L=0.44999999999999984
* device instance $1184 r0 *1 808.82,219.81 sg13_hv_pmos
M$1184 IOVDD \$238 \$244 IOVDD sg13_hv_pmos W=3.899999999999999
+ L=0.4499999999999999
* device instance $1185 r0 *1 808.82,221.15 sg13_hv_pmos
M$1185 \$256 \$263 IOVDD IOVDD sg13_hv_pmos W=0.29999999999999993
+ L=0.44999999999999984
* device instance $1186 r0 *1 808.82,221.98 sg13_hv_pmos
M$1186 IOVDD \$256 \$263 IOVDD sg13_hv_pmos W=0.29999999999999993
+ L=0.44999999999999984
* device instance $1187 r0 *1 808.82,223.32 sg13_hv_pmos
M$1187 IOVDD \$263 \$208 IOVDD sg13_hv_pmos W=3.899999999999999
+ L=0.4499999999999999
* device instance $1188 r0 *1 -108.92,305.52 sg13_hv_pmos
M$1188 AVDD|IOVDD \$329 IN5|PAD AVDD|IOVDD sg13_hv_pmos W=266.3999999999999
+ L=0.5999999999999999
* device instance $1228 r0 *1 881.82,314.58 sg13_hv_pmos
M$1228 IOVDD \$319 OUT5 IOVDD sg13_hv_pmos W=106.55999999999996
+ L=0.5999999999999999
* device instance $1244 r0 *1 808.82,317.64 sg13_hv_pmos
M$1244 \$339 \$349 IOVDD IOVDD sg13_hv_pmos W=0.29999999999999993
+ L=0.44999999999999984
* device instance $1245 r0 *1 808.82,318.47 sg13_hv_pmos
M$1245 IOVDD \$339 \$349 IOVDD sg13_hv_pmos W=0.29999999999999993
+ L=0.44999999999999984
* device instance $1246 r0 *1 808.82,319.81 sg13_hv_pmos
M$1246 IOVDD \$349 \$355 IOVDD sg13_hv_pmos W=3.899999999999999
+ L=0.4499999999999999
* device instance $1247 r0 *1 808.82,321.15 sg13_hv_pmos
M$1247 \$367 \$374 IOVDD IOVDD sg13_hv_pmos W=0.29999999999999993
+ L=0.44999999999999984
* device instance $1248 r0 *1 808.82,321.98 sg13_hv_pmos
M$1248 IOVDD \$367 \$374 IOVDD sg13_hv_pmos W=0.29999999999999993
+ L=0.44999999999999984
* device instance $1249 r0 *1 808.82,323.32 sg13_hv_pmos
M$1249 IOVDD \$374 \$319 IOVDD sg13_hv_pmos W=3.899999999999999
+ L=0.4499999999999999
* device instance $1250 r0 *1 -108.92,405.52 sg13_hv_pmos
M$1250 AVDD|IOVDD \$440 IN4|PAD AVDD|IOVDD sg13_hv_pmos W=266.3999999999999
+ L=0.5999999999999999
* device instance $1290 r0 *1 881.82,414.58 sg13_hv_pmos
M$1290 IOVDD \$430 OUT4 IOVDD sg13_hv_pmos W=106.55999999999996
+ L=0.5999999999999999
* device instance $1306 r0 *1 808.82,417.64 sg13_hv_pmos
M$1306 \$450 \$460 IOVDD IOVDD sg13_hv_pmos W=0.29999999999999993
+ L=0.44999999999999984
* device instance $1307 r0 *1 808.82,418.47 sg13_hv_pmos
M$1307 IOVDD \$450 \$460 IOVDD sg13_hv_pmos W=0.29999999999999993
+ L=0.44999999999999984
* device instance $1308 r0 *1 808.82,419.81 sg13_hv_pmos
M$1308 IOVDD \$460 \$466 IOVDD sg13_hv_pmos W=3.899999999999999
+ L=0.4499999999999999
* device instance $1309 r0 *1 808.82,421.15 sg13_hv_pmos
M$1309 \$478 \$485 IOVDD IOVDD sg13_hv_pmos W=0.29999999999999993
+ L=0.44999999999999984
* device instance $1310 r0 *1 808.82,421.98 sg13_hv_pmos
M$1310 IOVDD \$478 \$485 IOVDD sg13_hv_pmos W=0.29999999999999993
+ L=0.44999999999999984
* device instance $1311 r0 *1 808.82,423.32 sg13_hv_pmos
M$1311 IOVDD \$485 \$430 IOVDD sg13_hv_pmos W=3.899999999999999
+ L=0.4499999999999999
* device instance $1312 r0 *1 -108.92,505.52 sg13_hv_pmos
M$1312 AVDD|IOVDD \$554 PAD|VLO AVDD|IOVDD sg13_hv_pmos W=266.3999999999999
+ L=0.5999999999999999
* device instance $1352 r0 *1 865.09,598.44 sg13_hv_pmos
M$1352 IOVDD \$612 \$611 IOVDD sg13_hv_pmos W=349.99999999999994
+ L=0.4999999999999999
* device instance $1402 r0 *1 -108.92,605.52 sg13_hv_pmos
M$1402 AVDD|IOVDD \$628 PAD|VHI AVDD|IOVDD sg13_hv_pmos W=266.3999999999999
+ L=0.5999999999999999
* device instance $1442 r0 *1 -108.92,705.52 sg13_hv_pmos
M$1442 AVDD|IOVDD \$749 IN3|PAD AVDD|IOVDD sg13_hv_pmos W=266.3999999999999
+ L=0.5999999999999999
* device instance $1482 r0 *1 881.82,714.58 sg13_hv_pmos
M$1482 IOVDD \$739 OUT3 IOVDD sg13_hv_pmos W=106.55999999999996
+ L=0.5999999999999999
* device instance $1498 r0 *1 808.82,717.64 sg13_hv_pmos
M$1498 \$759 \$769 IOVDD IOVDD sg13_hv_pmos W=0.29999999999999993
+ L=0.44999999999999984
* device instance $1499 r0 *1 808.82,718.47 sg13_hv_pmos
M$1499 IOVDD \$759 \$769 IOVDD sg13_hv_pmos W=0.29999999999999993
+ L=0.44999999999999984
* device instance $1500 r0 *1 808.82,719.81 sg13_hv_pmos
M$1500 IOVDD \$769 \$775 IOVDD sg13_hv_pmos W=3.899999999999999
+ L=0.4499999999999999
* device instance $1501 r0 *1 808.82,721.15 sg13_hv_pmos
M$1501 \$787 \$794 IOVDD IOVDD sg13_hv_pmos W=0.29999999999999993
+ L=0.44999999999999984
* device instance $1502 r0 *1 808.82,721.98 sg13_hv_pmos
M$1502 IOVDD \$787 \$794 IOVDD sg13_hv_pmos W=0.29999999999999993
+ L=0.44999999999999984
* device instance $1503 r0 *1 808.82,723.32 sg13_hv_pmos
M$1503 IOVDD \$794 \$739 IOVDD sg13_hv_pmos W=3.899999999999999
+ L=0.4499999999999999
* device instance $1504 r0 *1 -108.92,805.52 sg13_hv_pmos