** sch_path: /foss/designs/EE628/5_Design/3_Real_circuits/padring_single_vss.sch
.subckt padring in1 in2 in3 vhi vlo in4 in5 in6 out1 out2 out3 out4 out5 out6 res ck4 ck5 ck6 vref ck3 ck2 ck1 in1_c
+ in2_c in3_c in4_c in5_c in6_c res_c ck4_c ck5_c ck6_c out1_c out2_c out3_c out4_c out5_c out6_c vref_c ck3_c ck2_c ck1_c vldo avdd vss
+ iovdd vdd

*** all VSS and IOVSS shorted
xp1 vss avdd vss avdd in1 in1_c sg13g2_IOPadAnalog
xp26 vss vdd vss iovdd ck1_c ck1 sg13g2_IOPadIn
xp24 vss vdd vss iovdd out1_c out1 sg13g2_IOPadOut16mA
xp32 vss avdd vss avdd sg13g2_IOPadVdd
xp9 vss avdd vss avdd sg13g2_IOPadVss
xp2 vss avdd vss avdd in2 in2_c sg13g2_IOPadAnalog
xp3 vss avdd vss avdd in3 in3_c sg13g2_IOPadAnalog
xp4 vss avdd vss avdd vhi net1 sg13g2_IOPadAnalog
xp5 vss avdd vss avdd vlo net2 sg13g2_IOPadAnalog
xp6 vss avdd vss avdd in4 in4_c sg13g2_IOPadAnalog
xp7 vss avdd vss avdd in5 in5_c sg13g2_IOPadAnalog
xp8 vss avdd vss avdd in6 in6_c sg13g2_IOPadAnalog
xp23 vss vdd vss iovdd out2_c out2 sg13g2_IOPadOut16mA
xp22 vss vdd vss iovdd out3_c out3 sg13g2_IOPadOut16mA
xp21 vss vdd vss iovdd sg13g2_IOPadIOVdd
xp20 vss vdd vss iovdd sg13g2_IOPadIOVss
xp19 vss vdd vss iovdd out4_c out4 sg13g2_IOPadOut16mA
xp18 vss vdd vss iovdd out5_c out5 sg13g2_IOPadOut16mA
xp17 vss vdd vss iovdd out6_c out6 sg13g2_IOPadOut16mA
xp25 vss vdd vss iovdd sg13g2_IOPadVdd
xp16 vss vdd vss iovdd sg13g2_IOPadVss
xp27 vss vdd vss iovdd ck2_c ck2 sg13g2_IOPadIn
xp28 vss vdd vss iovdd ck3_c ck3 sg13g2_IOPadIn
xp29 vss vdd vss iovdd sg13g2_IOPadIOVdd
xp30 vss avdd vss avdd vldo net3 sg13g2_IOPadAnalog
xp31 vss avdd vss avdd vref vref_c sg13g2_IOPadAnalog
xp15 vss vdd vss iovdd ck6_c ck6 sg13g2_IOPadIn
xp14 vss vdd vss iovdd ck5_c ck5 sg13g2_IOPadIn
xp13 vss vdd vss iovdd ck4_c ck4 sg13g2_IOPadIn
xp12 vss vdd vss iovdd sg13g2_IOPadIOVss
xp11 vss vdd vss iovdd res_c res sg13g2_IOPadIn
xp10 vss avdd vss avdd sg13g2_IOPadVss
* noconn #net1
* noconn #net2
* noconn #net3
.ends

**********************
*** top cells
.subckt sg13g2_IOPadAnalog vss vdd iovss iovdd pad padres
Xnclamp iovss iovdd pad sg13g2_Clamp_N20N0D
Xpclamp iovss iovdd pad sg13g2_Clamp_P20N0D
Xdcndiode iovss pad iovdd sg13g2_DCNDiode
Xdcpdiode pad iovdd iovss sg13g2_DCPDiode
Xsecondprot iovdd iovss pad padres sg13g2_SecondaryProtection
.ends

.subckt sg13g2_IOPadIOVdd vss vdd iovss iovdd
Xnclamp iovss iovdd iovdd ngate sg13g2_Clamp_N43N43D4R
Xrcres iovdd res_cap sg13g2_RCClampResistor
Xrcinv iovdd iovss res_cap ngate sg13g2_RCClampInverter
Xpad_guard iovss sg13g2_GuardRing_N16000W6624HFF
.ends sg13g2_IOPadIOVdd

.subckt sg13g2_IOPadIOVss vss vdd iovss iovdd
Xdcndiode iovss iovss iovdd sg13g2_DCNDiode
Xdcpdiode iovss iovdd iovss sg13g2_DCPDiode
.ends sg13g2_IOPadIOVss

*** Hacking this to short VSS and IOVSS (to pass LVS standalone) 
.subckt sg13g2_IOPadIn vss vdd iovss iovdd p2c pad
*Xdcndiode iovss pad iovdd sg13g2_DCNDiode
Xdcndiode vss pad iovdd sg13g2_DCNDiode
Xdcpdiode pad iovdd iovss sg13g2_DCPDiode
*Xleveldown vdd vss iovdd iovss pad p2c sg13g2_LevelDown
Xleveldown vdd vss iovdd vss pad p2c sg13g2_LevelDown
.ends sg13g2_IOPadIn

*** Hacking this to short VSS and IOVSS (to pass LVS standalone) 
.subckt sg13g2_IOPadOut16mA vss vdd iovss iovdd c2p pad
*Xnclamp iovss iovdd pad ngate sg13g2_Clamp_N8N8D
Xnclamp vss iovdd pad ngate sg13g2_Clamp_N8N8D
Xpclamp iovss iovdd pad pgate sg13g2_Clamp_P8N8D
*Xdcndiode iovss pad iovdd sg13g2_DCNDiode
Xdcndiode vss pad iovdd sg13g2_DCNDiode
Xdcpdiode pad iovdd iovss sg13g2_DCPDiode
Xgatelu vdd vss iovdd c2p ngate pgate sg13g2_GateLevelUpInv
.ends sg13g2_IOPadOut16mA

.subckt sg13g2_IOPadVdd vss vdd iovss iovdd
Xnclamp iovss iovdd vdd ngate sg13g2_Clamp_N43N43D4R
Xrcres vdd res_cap sg13g2_RCClampResistor
Xrcinv vdd iovss res_cap ngate sg13g2_RCClampInverter
.ends sg13g2_IOPadVdd

*** Hacking this to short VSS and IOVSS (to pass LVS standalone) 
.subckt sg13g2_IOPadVss vss vdd iovss iovdd
*Xdcndiode iovss vss iovdd sg13g2_DCNDiode
Xdcndiode vss vss iovdd sg13g2_DCNDiode
Xdcpdiode vss iovdd iovss sg13g2_DCPDiode
.ends sg13g2_IOPadVss


*********************
*** sub-cells
.subckt sg13g2_SecondaryProtection iovdd iovss pad core
Xguard1 iovss sg13g2_GuardRing_P576W948HFF
Xguard2 iovss sg13g2_GuardRing_P456W948HFF
Xguard3 iovdd sg13g2_GuardRing_N1324W456HTF
R1 core pad rppd l=2.0um w=1.0um m=1
DN iovss core dantenna l=3.1um w=0.64um a=1.984p p=7.48u
DP core iovdd dpantenna l=0.64um w=4.98um a=3.1872p p=11.24u
.ends sg13g2_SecondaryProtection

.subckt sg13g2_DCNDiode anode cathode guard
dcdiode[0] anode cathode dantenna l=1.26um w=27.78um a=35.0028p p=58.08u
dcdiode[1] anode cathode dantenna l=1.26um w=27.78um a=35.0028p p=58.08u
Xguard guard sg13g2_GuardRing_N7276W2716HFF
.ends sg13g2_DCNDiode

.subckt sg13g2_DCPDiode anode cathode guard
dcdiode[0] anode cathode dpantenna l=1.26um w=27.78um a=35.0028p p=58.08u
dcdiode[1] anode cathode dpantenna l=1.26um w=27.78um a=35.0028p p=58.08u
Xguard guard sg13g2_GuardRing_P7276W2716HFF
.ends sg13g2_DCPDiode

.subckt sg13g2_Clamp_N43N43D4R iovss iovdd pad gate
Mclamp_g0_r0 iovss gate pad iovss sg13_hv_nmos l=0.6um w=4.4um
Mclamp_g0_r1 iovss gate pad iovss sg13_hv_nmos l=0.6um w=4.4um
Mclamp_g0_r2 iovss gate pad iovss sg13_hv_nmos l=0.6um w=4.4um
Mclamp_g0_r3 iovss gate pad iovss sg13_hv_nmos l=0.6um w=4.4um
Mclamp_g1_r0 pad gate iovss iovss sg13_hv_nmos l=0.6um w=4.4um
Mclamp_g1_r1 pad gate iovss iovss sg13_hv_nmos l=0.6um w=4.4um
Mclamp_g1_r2 pad gate iovss iovss sg13_hv_nmos l=0.6um w=4.4um
Mclamp_g1_r3 pad gate iovss iovss sg13_hv_nmos l=0.6um w=4.4um
Mclamp_g2_r0 iovss gate pad iovss sg13_hv_nmos l=0.6um w=4.4um
Mclamp_g2_r1 iovss gate pad iovss sg13_hv_nmos l=0.6um w=4.4um
Mclamp_g2_r2 iovss gate pad iovss sg13_hv_nmos l=0.6um w=4.4um
Mclamp_g2_r3 iovss gate pad iovss sg13_hv_nmos l=0.6um w=4.4um
Mclamp_g3_r0 pad gate iovss iovss sg13_hv_nmos l=0.6um w=4.4um
Mclamp_g3_r1 pad gate iovss iovss sg13_hv_nmos l=0.6um w=4.4um
Mclamp_g3_r2 pad gate iovss iovss sg13_hv_nmos l=0.6um w=4.4um
Mclamp_g3_r3 pad gate iovss iovss sg13_hv_nmos l=0.6um w=4.4um
Mclamp_g4_r0 iovss gate pad iovss sg13_hv_nmos l=0.6um w=4.4um
Mclamp_g4_r1 iovss gate pad iovss sg13_hv_nmos l=0.6um w=4.4um
Mclamp_g4_r2 iovss gate pad iovss sg13_hv_nmos l=0.6um w=4.4um
Mclamp_g4_r3 iovss gate pad iovss sg13_hv_nmos l=0.6um w=4.4um
Mclamp_g5_r0 pad gate iovss iovss sg13_hv_nmos l=0.6um w=4.4um
Mclamp_g5_r1 pad gate iovss iovss sg13_hv_nmos l=0.6um w=4.4um
Mclamp_g5_r2 pad gate iovss iovss sg13_hv_nmos l=0.6um w=4.4um
Mclamp_g5_r3 pad gate iovss iovss sg13_hv_nmos l=0.6um w=4.4um
Mclamp_g6_r0 iovss gate pad iovss sg13_hv_nmos l=0.6um w=4.4um
Mclamp_g6_r1 iovss gate pad iovss sg13_hv_nmos l=0.6um w=4.4um
Mclamp_g6_r2 iovss gate pad iovss sg13_hv_nmos l=0.6um w=4.4um
Mclamp_g6_r3 iovss gate pad iovss sg13_hv_nmos l=0.6um w=4.4um
Mclamp_g7_r0 pad gate iovss iovss sg13_hv_nmos l=0.6um w=4.4um
Mclamp_g7_r1 pad gate iovss iovss sg13_hv_nmos l=0.6um w=4.4um
Mclamp_g7_r2 pad gate iovss iovss sg13_hv_nmos l=0.6um w=4.4um
Mclamp_g7_r3 pad gate iovss iovss sg13_hv_nmos l=0.6um w=4.4um
Mclamp_g8_r0 iovss gate pad iovss sg13_hv_nmos l=0.6um w=4.4um
Mclamp_g8_r1 iovss gate pad iovss sg13_hv_nmos l=0.6um w=4.4um
Mclamp_g8_r2 iovss gate pad iovss sg13_hv_nmos l=0.6um w=4.4um
Mclamp_g8_r3 iovss gate pad iovss sg13_hv_nmos l=0.6um w=4.4um
Mclamp_g9_r0 pad gate iovss iovss sg13_hv_nmos l=0.6um w=4.4um
Mclamp_g9_r1 pad gate iovss iovss sg13_hv_nmos l=0.6um w=4.4um
Mclamp_g9_r2 pad gate iovss iovss sg13_hv_nmos l=0.6um w=4.4um
Mclamp_g9_r3 pad gate iovss iovss sg13_hv_nmos l=0.6um w=4.4um
Mclamp_g10_r0 iovss gate pad iovss sg13_hv_nmos l=0.6um w=4.4um
Mclamp_g10_r1 iovss gate pad iovss sg13_hv_nmos l=0.6um w=4.4um
Mclamp_g10_r2 iovss gate pad iovss sg13_hv_nmos l=0.6um w=4.4um
Mclamp_g10_r3 iovss gate pad iovss sg13_hv_nmos l=0.6um w=4.4um
Mclamp_g11_r0 pad gate iovss iovss sg13_hv_nmos l=0.6um w=4.4um
Mclamp_g11_r1 pad gate iovss iovss sg13_hv_nmos l=0.6um w=4.4um
Mclamp_g11_r2 pad gate iovss iovss sg13_hv_nmos l=0.6um w=4.4um
Mclamp_g11_r3 pad gate iovss iovss sg13_hv_nmos l=0.6um w=4.4um
Mclamp_g12_r0 iovss gate pad iovss sg13_hv_nmos l=0.6um w=4.4um
Mclamp_g12_r1 iovss gate pad iovss sg13_hv_nmos l=0.6um w=4.4um
Mclamp_g12_r2 iovss gate pad iovss sg13_hv_nmos l=0.6um w=4.4um
Mclamp_g12_r3 iovss gate pad iovss sg13_hv_nmos l=0.6um w=4.4um
Mclamp_g13_r0 pad gate iovss iovss sg13_hv_nmos l=0.6um w=4.4um
Mclamp_g13_r1 pad gate iovss iovss sg13_hv_nmos l=0.6um w=4.4um
Mclamp_g13_r2 pad gate iovss iovss sg13_hv_nmos l=0.6um w=4.4um
Mclamp_g13_r3 pad gate iovss iovss sg13_hv_nmos l=0.6um w=4.4um
Mclamp_g14_r0 iovss gate pad iovss sg13_hv_nmos l=0.6um w=4.4um
Mclamp_g14_r1 iovss gate pad iovss sg13_hv_nmos l=0.6um w=4.4um
Mclamp_g14_r2 iovss gate pad iovss sg13_hv_nmos l=0.6um w=4.4um
Mclamp_g14_r3 iovss gate pad iovss sg13_hv_nmos l=0.6um w=4.4um
Mclamp_g15_r0 pad gate iovss iovss sg13_hv_nmos l=0.6um w=4.4um
Mclamp_g15_r1 pad gate iovss iovss sg13_hv_nmos l=0.6um w=4.4um
Mclamp_g15_r2 pad gate iovss iovss sg13_hv_nmos l=0.6um w=4.4um
Mclamp_g15_r3 pad gate iovss iovss sg13_hv_nmos l=0.6um w=4.4um
Mclamp_g16_r0 iovss gate pad iovss sg13_hv_nmos l=0.6um w=4.4um
Mclamp_g16_r1 iovss gate pad iovss sg13_hv_nmos l=0.6um w=4.4um
Mclamp_g16_r2 iovss gate pad iovss sg13_hv_nmos l=0.6um w=4.4um
Mclamp_g16_r3 iovss gate pad iovss sg13_hv_nmos l=0.6um w=4.4um
Mclamp_g17_r0 pad gate iovss iovss sg13_hv_nmos l=0.6um w=4.4um
Mclamp_g17_r1 pad gate iovss iovss sg13_hv_nmos l=0.6um w=4.4um
Mclamp_g17_r2 pad gate iovss iovss sg13_hv_nmos l=0.6um w=4.4um
Mclamp_g17_r3 pad gate iovss iovss sg13_hv_nmos l=0.6um w=4.4um
Mclamp_g18_r0 iovss gate pad iovss sg13_hv_nmos l=0.6um w=4.4um
Mclamp_g18_r1 iovss gate pad iovss sg13_hv_nmos l=0.6um w=4.4um
Mclamp_g18_r2 iovss gate pad iovss sg13_hv_nmos l=0.6um w=4.4um
Mclamp_g18_r3 iovss gate pad iovss sg13_hv_nmos l=0.6um w=4.4um
Mclamp_g19_r0 pad gate iovss iovss sg13_hv_nmos l=0.6um w=4.4um
Mclamp_g19_r1 pad gate iovss iovss sg13_hv_nmos l=0.6um w=4.4um
Mclamp_g19_r2 pad gate iovss iovss sg13_hv_nmos l=0.6um w=4.4um
Mclamp_g19_r3 pad gate iovss iovss sg13_hv_nmos l=0.6um w=4.4um
Mclamp_g20_r0 iovss gate pad iovss sg13_hv_nmos l=0.6um w=4.4um
Mclamp_g20_r1 iovss gate pad iovss sg13_hv_nmos l=0.6um w=4.4um
Mclamp_g20_r2 iovss gate pad iovss sg13_hv_nmos l=0.6um w=4.4um
Mclamp_g20_r3 iovss gate pad iovss sg13_hv_nmos l=0.6um w=4.4um
Mclamp_g21_r0 pad gate iovss iovss sg13_hv_nmos l=0.6um w=4.4um
Mclamp_g21_r1 pad gate iovss iovss sg13_hv_nmos l=0.6um w=4.4um
Mclamp_g21_r2 pad gate iovss iovss sg13_hv_nmos l=0.6um w=4.4um
Mclamp_g21_r3 pad gate iovss iovss sg13_hv_nmos l=0.6um w=4.4um
Mclamp_g22_r0 iovss gate pad iovss sg13_hv_nmos l=0.6um w=4.4um
Mclamp_g22_r1 iovss gate pad iovss sg13_hv_nmos l=0.6um w=4.4um
Mclamp_g22_r2 iovss gate pad iovss sg13_hv_nmos l=0.6um w=4.4um
Mclamp_g22_r3 iovss gate pad iovss sg13_hv_nmos l=0.6um w=4.4um
Mclamp_g23_r0 pad gate iovss iovss sg13_hv_nmos l=0.6um w=4.4um
Mclamp_g23_r1 pad gate iovss iovss sg13_hv_nmos l=0.6um w=4.4um
Mclamp_g23_r2 pad gate iovss iovss sg13_hv_nmos l=0.6um w=4.4um
Mclamp_g23_r3 pad gate iovss iovss sg13_hv_nmos l=0.6um w=4.4um
Mclamp_g24_r0 iovss gate pad iovss sg13_hv_nmos l=0.6um w=4.4um
Mclamp_g24_r1 iovss gate pad iovss sg13_hv_nmos l=0.6um w=4.4um
Mclamp_g24_r2 iovss gate pad iovss sg13_hv_nmos l=0.6um w=4.4um
Mclamp_g24_r3 iovss gate pad iovss sg13_hv_nmos l=0.6um w=4.4um
Mclamp_g25_r0 pad gate iovss iovss sg13_hv_nmos l=0.6um w=4.4um
Mclamp_g25_r1 pad gate iovss iovss sg13_hv_nmos l=0.6um w=4.4um
Mclamp_g25_r2 pad gate iovss iovss sg13_hv_nmos l=0.6um w=4.4um
Mclamp_g25_r3 pad gate iovss iovss sg13_hv_nmos l=0.6um w=4.4um
Mclamp_g26_r0 iovss gate pad iovss sg13_hv_nmos l=0.6um w=4.4um
Mclamp_g26_r1 iovss gate pad iovss sg13_hv_nmos l=0.6um w=4.4um
Mclamp_g26_r2 iovss gate pad iovss sg13_hv_nmos l=0.6um w=4.4um
Mclamp_g26_r3 iovss gate pad iovss sg13_hv_nmos l=0.6um w=4.4um
Mclamp_g27_r0 pad gate iovss iovss sg13_hv_nmos l=0.6um w=4.4um
Mclamp_g27_r1 pad gate iovss iovss sg13_hv_nmos l=0.6um w=4.4um
Mclamp_g27_r2 pad gate iovss iovss sg13_hv_nmos l=0.6um w=4.4um
Mclamp_g27_r3 pad gate iovss iovss sg13_hv_nmos l=0.6um w=4.4um
Mclamp_g28_r0 iovss gate pad iovss sg13_hv_nmos l=0.6um w=4.4um
Mclamp_g28_r1 iovss gate pad iovss sg13_hv_nmos l=0.6um w=4.4um
Mclamp_g28_r2 iovss gate pad iovss sg13_hv_nmos l=0.6um w=4.4um
Mclamp_g28_r3 iovss gate pad iovss sg13_hv_nmos l=0.6um w=4.4um
Mclamp_g29_r0 pad gate iovss iovss sg13_hv_nmos l=0.6um w=4.4um
Mclamp_g29_r1 pad gate iovss iovss sg13_hv_nmos l=0.6um w=4.4um
Mclamp_g29_r2 pad gate iovss iovss sg13_hv_nmos l=0.6um w=4.4um
Mclamp_g29_r3 pad gate iovss iovss sg13_hv_nmos l=0.6um w=4.4um
Mclamp_g30_r0 iovss gate pad iovss sg13_hv_nmos l=0.6um w=4.4um
Mclamp_g30_r1 iovss gate pad iovss sg13_hv_nmos l=0.6um w=4.4um
Mclamp_g30_r2 iovss gate pad iovss sg13_hv_nmos l=0.6um w=4.4um
Mclamp_g30_r3 iovss gate pad iovss sg13_hv_nmos l=0.6um w=4.4um
Mclamp_g31_r0 pad gate iovss iovss sg13_hv_nmos l=0.6um w=4.4um
Mclamp_g31_r1 pad gate iovss iovss sg13_hv_nmos l=0.6um w=4.4um
Mclamp_g31_r2 pad gate iovss iovss sg13_hv_nmos l=0.6um w=4.4um
Mclamp_g31_r3 pad gate iovss iovss sg13_hv_nmos l=0.6um w=4.4um
Mclamp_g32_r0 iovss gate pad iovss sg13_hv_nmos l=0.6um w=4.4um
Mclamp_g32_r1 iovss gate pad iovss sg13_hv_nmos l=0.6um w=4.4um
Mclamp_g32_r2 iovss gate pad iovss sg13_hv_nmos l=0.6um w=4.4um
Mclamp_g32_r3 iovss gate pad iovss sg13_hv_nmos l=0.6um w=4.4um
Mclamp_g33_r0 pad gate iovss iovss sg13_hv_nmos l=0.6um w=4.4um
Mclamp_g33_r1 pad gate iovss iovss sg13_hv_nmos l=0.6um w=4.4um
Mclamp_g33_r2 pad gate iovss iovss sg13_hv_nmos l=0.6um w=4.4um
Mclamp_g33_r3 pad gate iovss iovss sg13_hv_nmos l=0.6um w=4.4um
Mclamp_g34_r0 iovss gate pad iovss sg13_hv_nmos l=0.6um w=4.4um
Mclamp_g34_r1 iovss gate pad iovss sg13_hv_nmos l=0.6um w=4.4um
Mclamp_g34_r2 iovss gate pad iovss sg13_hv_nmos l=0.6um w=4.4um
Mclamp_g34_r3 iovss gate pad iovss sg13_hv_nmos l=0.6um w=4.4um
Mclamp_g35_r0 pad gate iovss iovss sg13_hv_nmos l=0.6um w=4.4um
Mclamp_g35_r1 pad gate iovss iovss sg13_hv_nmos l=0.6um w=4.4um
Mclamp_g35_r2 pad gate iovss iovss sg13_hv_nmos l=0.6um w=4.4um
Mclamp_g35_r3 pad gate iovss iovss sg13_hv_nmos l=0.6um w=4.4um
Mclamp_g36_r0 iovss gate pad iovss sg13_hv_nmos l=0.6um w=4.4um
Mclamp_g36_r1 iovss gate pad iovss sg13_hv_nmos l=0.6um w=4.4um
Mclamp_g36_r2 iovss gate pad iovss sg13_hv_nmos l=0.6um w=4.4um
Mclamp_g36_r3 iovss gate pad iovss sg13_hv_nmos l=0.6um w=4.4um
Mclamp_g37_r0 pad gate iovss iovss sg13_hv_nmos l=0.6um w=4.4um
Mclamp_g37_r1 pad gate iovss iovss sg13_hv_nmos l=0.6um w=4.4um
Mclamp_g37_r2 pad gate iovss iovss sg13_hv_nmos l=0.6um w=4.4um
Mclamp_g37_r3 pad gate iovss iovss sg13_hv_nmos l=0.6um w=4.4um
Mclamp_g38_r0 iovss gate pad iovss sg13_hv_nmos l=0.6um w=4.4um
Mclamp_g38_r1 iovss gate pad iovss sg13_hv_nmos l=0.6um w=4.4um
Mclamp_g38_r2 iovss gate pad iovss sg13_hv_nmos l=0.6um w=4.4um
Mclamp_g38_r3 iovss gate pad iovss sg13_hv_nmos l=0.6um w=4.4um
Mclamp_g39_r0 pad gate iovss iovss sg13_hv_nmos l=0.6um w=4.4um
Mclamp_g39_r1 pad gate iovss iovss sg13_hv_nmos l=0.6um w=4.4um
Mclamp_g39_r2 pad gate iovss iovss sg13_hv_nmos l=0.6um w=4.4um
Mclamp_g39_r3 pad gate iovss iovss sg13_hv_nmos l=0.6um w=4.4um
Mclamp_g40_r0 iovss gate pad iovss sg13_hv_nmos l=0.6um w=4.4um
Mclamp_g40_r1 iovss gate pad iovss sg13_hv_nmos l=0.6um w=4.4um
Mclamp_g40_r2 iovss gate pad iovss sg13_hv_nmos l=0.6um w=4.4um
Mclamp_g40_r3 iovss gate pad iovss sg13_hv_nmos l=0.6um w=4.4um
Mclamp_g41_r0 pad gate iovss iovss sg13_hv_nmos l=0.6um w=4.4um
Mclamp_g41_r1 pad gate iovss iovss sg13_hv_nmos l=0.6um w=4.4um
Mclamp_g41_r2 pad gate iovss iovss sg13_hv_nmos l=0.6um w=4.4um
Mclamp_g41_r3 pad gate iovss iovss sg13_hv_nmos l=0.6um w=4.4um
Mclamp_g42_r0 iovss gate pad iovss sg13_hv_nmos l=0.6um w=4.4um
Mclamp_g42_r1 iovss gate pad iovss sg13_hv_nmos l=0.6um w=4.4um
Mclamp_g42_r2 iovss gate pad iovss sg13_hv_nmos l=0.6um w=4.4um
Mclamp_g42_r3 iovss gate pad iovss sg13_hv_nmos l=0.6um w=4.4um
XOuterRing iovdd sg13g2_GuardRing_N16000W4884HFF
XInnerRing iovss sg13g2_GuardRing_P15280W4164HFF
DGATE iovss gate dantenna l=0.64um w=0.3um a=0.192p p=1.88u
.ends sg13g2_Clamp_N43N43D4R

.subckt sg13g2_RCClampResistor pin1 pin2
*res_fing[0] pin1 conn_0_1 rppd l=20.0um w=1.0um
*res_fing[1] conn_0_1 conn_1_2 rppd l=20.0um w=1.0um
*res_fing[2] conn_1_2 conn_2_3 rppd l=20.0um w=1.0um
*res_fing[3] conn_2_3 conn_3_4 rppd l=20.0um w=1.0um
*res_fing[4] conn_3_4 conn_4_5 rppd l=20.0um w=1.0um
*res_fing[5] conn_4_5 conn_5_6 rppd l=20.0um w=1.0um
*res_fing[6] conn_5_6 conn_6_7 rppd l=20.0um w=1.0um
*res_fing[7] conn_6_7 conn_7_8 rppd l=20.0um w=1.0um
*res_fing[8] conn_7_8 conn_8_9 rppd l=20.0um w=1.0um
*res_fing[9] conn_8_9 conn_9_10 rppd l=20.0um w=1.0um
*res_fing[10] conn_9_10 conn_10_11 rppd l=20.0um w=1.0um
*res_fing[11] conn_10_11 conn_11_12 rppd l=20.0um w=1.0um
*res_fing[12] conn_11_12 conn_12_13 rppd l=20.0um w=1.0um
*res_fing[13] conn_12_13 conn_13_14 rppd l=20.0um w=1.0um
*res_fing[14] conn_13_14 conn_14_15 rppd l=20.0um w=1.0um
*res_fing[15] conn_14_15 conn_15_16 rppd l=20.0um w=1.0um
*res_fing[16] conn_15_16 conn_16_17 rppd l=20.0um w=1.0um
*res_fing[17] conn_16_17 conn_17_18 rppd l=20.0um w=1.0um
*res_fing[18] conn_17_18 conn_18_19 rppd l=20.0um w=1.0um
*res_fing[19] conn_18_19 conn_19_20 rppd l=20.0um w=1.0um
*res_fing[20] conn_19_20 conn_20_21 rppd l=20.0um w=1.0um
*res_fing[21] conn_20_21 conn_21_22 rppd l=20.0um w=1.0um
*res_fing[22] conn_21_22 conn_22_23 rppd l=20.0um w=1.0um
*res_fing[23] conn_22_23 conn_23_24 rppd l=20.0um w=1.0um
*res_fing[24] conn_23_24 conn_24_25 rppd l=20.0um w=1.0um
*res_fing[25] conn_24_25 pin2 rppd l=20.0um w=1.0um
res1 pin1 pin2 rppd w=1.0um b=25 m=1
.ends sg13g2_RCClampResistor

.subckt sg13g2_RCClampInverter supply ground in out
Mcapmos0_r0 ground in ground ground sg13_hv_nmos l=9.5um w=9.0um
Mcapmos1_r0 ground in ground ground sg13_hv_nmos l=9.5um w=9.0um
Mcapmos2_r0 ground in ground ground sg13_hv_nmos l=9.5um w=9.0um
Mcapmos3_r0 ground in ground ground sg13_hv_nmos l=9.5um w=9.0um
Mcapmos4_r0 ground in ground ground sg13_hv_nmos l=9.5um w=9.0um
Mcapmos5_r0 ground in ground ground sg13_hv_nmos l=9.5um w=9.0um
Mcapmos6_r0 ground in ground ground sg13_hv_nmos l=9.5um w=9.0um
Mnmos0_r0 ground in out ground sg13_hv_nmos l=0.5um w=9.0um
Mnmos1_r0 out in ground ground sg13_hv_nmos l=0.5um w=9.0um
Mnmos2_r0 ground in out ground sg13_hv_nmos l=0.5um w=9.0um
Mnmos3_r0 out in ground ground sg13_hv_nmos l=0.5um w=9.0um
Mnmos4_r0 ground in out ground sg13_hv_nmos l=0.5um w=9.0um
Mnmos5_r0 out in ground ground sg13_hv_nmos l=0.5um w=9.0um
Mcapmos0_r1 ground in ground ground sg13_hv_nmos l=9.5um w=9.0um
Mcapmos1_r1 ground in ground ground sg13_hv_nmos l=9.5um w=9.0um
Mcapmos2_r1 ground in ground ground sg13_hv_nmos l=9.5um w=9.0um
Mcapmos3_r1 ground in ground ground sg13_hv_nmos l=9.5um w=9.0um
Mcapmos4_r1 ground in ground ground sg13_hv_nmos l=9.5um w=9.0um
Mcapmos5_r1 ground in ground ground sg13_hv_nmos l=9.5um w=9.0um
Mcapmos6_r1 ground in ground ground sg13_hv_nmos l=9.5um w=9.0um
Mnmos0_r1 ground in out ground sg13_hv_nmos l=0.5um w=9.0um
Mnmos1_r1 out in ground ground sg13_hv_nmos l=0.5um w=9.0um
Mnmos2_r1 ground in out ground sg13_hv_nmos l=0.5um w=9.0um
Mnmos3_r1 out in ground ground sg13_hv_nmos l=0.5um w=9.0um
Mnmos4_r1 ground in out ground sg13_hv_nmos l=0.5um w=9.0um
Mnmos5_r1 out in ground ground sg13_hv_nmos l=0.5um w=9.0um
Xnmosguardring ground sg13g2_GuardRing_P16000W4466HFT
Mpmos0_r0 supply in out supply sg13_hv_pmos l=0.5um w=7.0um
Mpmos1_r0 out in supply supply sg13_hv_pmos l=0.5um w=7.0um
Mpmos2_r0 supply in out supply sg13_hv_pmos l=0.5um w=7.0um
Mpmos3_r0 out in supply supply sg13_hv_pmos l=0.5um w=7.0um
Mpmos4_r0 supply in out supply sg13_hv_pmos l=0.5um w=7.0um
Mpmos5_r0 out in supply supply sg13_hv_pmos l=0.5um w=7.0um
Mpmos6_r0 supply in out supply sg13_hv_pmos l=0.5um w=7.0um
Mpmos7_r0 out in supply supply sg13_hv_pmos l=0.5um w=7.0um
Mpmos8_r0 supply in out supply sg13_hv_pmos l=0.5um w=7.0um
Mpmos9_r0 out in supply supply sg13_hv_pmos l=0.5um w=7.0um
Mpmos10_r0 supply in out supply sg13_hv_pmos l=0.5um w=7.0um
Mpmos11_r0 out in supply supply sg13_hv_pmos l=0.5um w=7.0um
Mpmos12_r0 supply in out supply sg13_hv_pmos l=0.5um w=7.0um
Mpmos13_r0 out in supply supply sg13_hv_pmos l=0.5um w=7.0um
Mpmos14_r0 supply in out supply sg13_hv_pmos l=0.5um w=7.0um
Mpmos15_r0 out in supply supply sg13_hv_pmos l=0.5um w=7.0um
Mpmos16_r0 supply in out supply sg13_hv_pmos l=0.5um w=7.0um
Mpmos17_r0 out in supply supply sg13_hv_pmos l=0.5um w=7.0um
Mpmos18_r0 supply in out supply sg13_hv_pmos l=0.5um w=7.0um
Mpmos19_r0 out in supply supply sg13_hv_pmos l=0.5um w=7.0um
Mpmos20_r0 supply in out supply sg13_hv_pmos l=0.5um w=7.0um
Mpmos21_r0 out in supply supply sg13_hv_pmos l=0.5um w=7.0um
Mpmos22_r0 supply in out supply sg13_hv_pmos l=0.5um w=7.0um
Mpmos23_r0 out in supply supply sg13_hv_pmos l=0.5um w=7.0um
Mpmos24_r0 supply in out supply sg13_hv_pmos l=0.5um w=7.0um
Mpmos25_r0 out in supply supply sg13_hv_pmos l=0.5um w=7.0um
Mpmos26_r0 supply in out supply sg13_hv_pmos l=0.5um w=7.0um
Mpmos27_r0 out in supply supply sg13_hv_pmos l=0.5um w=7.0um
Mpmos28_r0 supply in out supply sg13_hv_pmos l=0.5um w=7.0um
Mpmos29_r0 out in supply supply sg13_hv_pmos l=0.5um w=7.0um
Mpmos30_r0 supply in out supply sg13_hv_pmos l=0.5um w=7.0um
Mpmos31_r0 out in supply supply sg13_hv_pmos l=0.5um w=7.0um
Mpmos32_r0 supply in out supply sg13_hv_pmos l=0.5um w=7.0um
Mpmos33_r0 out in supply supply sg13_hv_pmos l=0.5um w=7.0um
Mpmos34_r0 supply in out supply sg13_hv_pmos l=0.5um w=7.0um
Mpmos35_r0 out in supply supply sg13_hv_pmos l=0.5um w=7.0um
Mpmos36_r0 supply in out supply sg13_hv_pmos l=0.5um w=7.0um
Mpmos37_r0 out in supply supply sg13_hv_pmos l=0.5um w=7.0um
Mpmos38_r0 supply in out supply sg13_hv_pmos l=0.5um w=7.0um
Mpmos39_r0 out in supply supply sg13_hv_pmos l=0.5um w=7.0um
Mpmos40_r0 supply in out supply sg13_hv_pmos l=0.5um w=7.0um
Mpmos41_r0 out in supply supply sg13_hv_pmos l=0.5um w=7.0um
Mpmos42_r0 supply in out supply sg13_hv_pmos l=0.5um w=7.0um
Mpmos43_r0 out in supply supply sg13_hv_pmos l=0.5um w=7.0um
Mpmos44_r0 supply in out supply sg13_hv_pmos l=0.5um w=7.0um
Mpmos45_r0 out in supply supply sg13_hv_pmos l=0.5um w=7.0um
Mpmos46_r0 supply in out supply sg13_hv_pmos l=0.5um w=7.0um
Mpmos47_r0 out in supply supply sg13_hv_pmos l=0.5um w=7.0um
Mpmos48_r0 supply in out supply sg13_hv_pmos l=0.5um w=7.0um
Mpmos49_r0 out in supply supply sg13_hv_pmos l=0.5um w=7.0um
Xpmosguardring supply sg13g2_GuardRing_N9472W2216HTT
.ends sg13g2_RCClampInverter


.subckt sg13g2_Clamp_N20N0D iovss iovdd pad
mclamp_g0 iovss off pad iovss sg13_hv_nmos l=0.6um w=4.4um
mclamp_g1 pad off iovss iovss sg13_hv_nmos l=0.6um w=4.4um
mclamp_g2 iovss off pad iovss sg13_hv_nmos l=0.6um w=4.4um
mclamp_g3 pad off iovss iovss sg13_hv_nmos l=0.6um w=4.4um
mclamp_g4 iovss off pad iovss sg13_hv_nmos l=0.6um w=4.4um
mclamp_g5 pad off iovss iovss sg13_hv_nmos l=0.6um w=4.4um
mclamp_g6 iovss off pad iovss sg13_hv_nmos l=0.6um w=4.4um
mclamp_g7 pad off iovss iovss sg13_hv_nmos l=0.6um w=4.4um
mclamp_g8 iovss off pad iovss sg13_hv_nmos l=0.6um w=4.4um
mclamp_g9 pad off iovss iovss sg13_hv_nmos l=0.6um w=4.4um
mclamp_g10 iovss off pad iovss sg13_hv_nmos l=0.6um w=4.4um
mclamp_g11 pad off iovss iovss sg13_hv_nmos l=0.6um w=4.4um
mclamp_g12 iovss off pad iovss sg13_hv_nmos l=0.6um w=4.4um
mclamp_g13 pad off iovss iovss sg13_hv_nmos l=0.6um w=4.4um
mclamp_g14 iovss off pad iovss sg13_hv_nmos l=0.6um w=4.4um
mclamp_g15 pad off iovss iovss sg13_hv_nmos l=0.6um w=4.4um
mclamp_g16 iovss off pad iovss sg13_hv_nmos l=0.6um w=4.4um
mclamp_g17 pad off iovss iovss sg13_hv_nmos l=0.6um w=4.4um
mclamp_g18 iovss off pad iovss sg13_hv_nmos l=0.6um w=4.4um
mclamp_g19 pad off iovss iovss sg13_hv_nmos l=0.6um w=4.4um
XOuterRing iovdd sg13g2_GuardRing_N16000W1980HFF
XInnerRing iovss sg13g2_GuardRing_P15280W1260HFF
Roff iovss off rppd l=3.54um w=0.5um
.ends sg13g2_Clamp_N20N0D

.subckt sg13g2_Clamp_P20N0D iovss iovdd pad
mclamp_g0_r0 iovdd off pad iovdd sg13_hv_pmos l=0.6um w=6.66um
mclamp_g0_r1 iovdd off pad iovdd sg13_hv_pmos l=0.6um w=6.66um
mclamp_g1_r0 pad off iovdd iovdd sg13_hv_pmos l=0.6um w=6.66um
mclamp_g1_r1 pad off iovdd iovdd sg13_hv_pmos l=0.6um w=6.66um
mclamp_g2_r0 iovdd off pad iovdd sg13_hv_pmos l=0.6um w=6.66um
mclamp_g2_r1 iovdd off pad iovdd sg13_hv_pmos l=0.6um w=6.66um
mclamp_g3_r0 pad off iovdd iovdd sg13_hv_pmos l=0.6um w=6.66um
mclamp_g3_r1 pad off iovdd iovdd sg13_hv_pmos l=0.6um w=6.66um
mclamp_g4_r0 iovdd off pad iovdd sg13_hv_pmos l=0.6um w=6.66um
mclamp_g4_r1 iovdd off pad iovdd sg13_hv_pmos l=0.6um w=6.66um
mclamp_g5_r0 pad off iovdd iovdd sg13_hv_pmos l=0.6um w=6.66um
mclamp_g5_r1 pad off iovdd iovdd sg13_hv_pmos l=0.6um w=6.66um
mclamp_g6_r0 iovdd off pad iovdd sg13_hv_pmos l=0.6um w=6.66um
mclamp_g6_r1 iovdd off pad iovdd sg13_hv_pmos l=0.6um w=6.66um
mclamp_g7_r0 pad off iovdd iovdd sg13_hv_pmos l=0.6um w=6.66um
mclamp_g7_r1 pad off iovdd iovdd sg13_hv_pmos l=0.6um w=6.66um
mclamp_g8_r0 iovdd off pad iovdd sg13_hv_pmos l=0.6um w=6.66um
mclamp_g8_r1 iovdd off pad iovdd sg13_hv_pmos l=0.6um w=6.66um
mclamp_g9_r0 pad off iovdd iovdd sg13_hv_pmos l=0.6um w=6.66um
mclamp_g9_r1 pad off iovdd iovdd sg13_hv_pmos l=0.6um w=6.66um
mclamp_g10_r0 iovdd off pad iovdd sg13_hv_pmos l=0.6um w=6.66um
mclamp_g10_r1 iovdd off pad iovdd sg13_hv_pmos l=0.6um w=6.66um
mclamp_g11_r0 pad off iovdd iovdd sg13_hv_pmos l=0.6um w=6.66um
mclamp_g11_r1 pad off iovdd iovdd sg13_hv_pmos l=0.6um w=6.66um
mclamp_g12_r0 iovdd off pad iovdd sg13_hv_pmos l=0.6um w=6.66um
mclamp_g12_r1 iovdd off pad iovdd sg13_hv_pmos l=0.6um w=6.66um
mclamp_g13_r0 pad off iovdd iovdd sg13_hv_pmos l=0.6um w=6.66um
mclamp_g13_r1 pad off iovdd iovdd sg13_hv_pmos l=0.6um w=6.66um
mclamp_g14_r0 iovdd off pad iovdd sg13_hv_pmos l=0.6um w=6.66um
mclamp_g14_r1 iovdd off pad iovdd sg13_hv_pmos l=0.6um w=6.66um
mclamp_g15_r0 pad off iovdd iovdd sg13_hv_pmos l=0.6um w=6.66um
mclamp_g15_r1 pad off iovdd iovdd sg13_hv_pmos l=0.6um w=6.66um
mclamp_g16_r0 iovdd off pad iovdd sg13_hv_pmos l=0.6um w=6.66um
mclamp_g16_r1 iovdd off pad iovdd sg13_hv_pmos l=0.6um w=6.66um
mclamp_g17_r0 pad off iovdd iovdd sg13_hv_pmos l=0.6um w=6.66um
mclamp_g17_r1 pad off iovdd iovdd sg13_hv_pmos l=0.6um w=6.66um
mclamp_g18_r0 iovdd off pad iovdd sg13_hv_pmos l=0.6um w=6.66um
mclamp_g18_r1 iovdd off pad iovdd sg13_hv_pmos l=0.6um w=6.66um
mclamp_g19_r0 pad off iovdd iovdd sg13_hv_pmos l=0.6um w=6.66um
mclamp_g19_r1 pad off iovdd iovdd sg13_hv_pmos l=0.6um w=6.66um
XOuterRing iovss sg13g2_GuardRing_P16000W3852HFF
XInnerRing iovdd sg13g2_GuardRing_N15280W3132HTF
Roff iovdd off rppd l=12.9um w=0.5um
.ends sg13g2_Clamp_P20N0D

.subckt sg13g2_Clamp_N8N8D iovss iovdd pad gate
Mclamp_g0 iovss gate pad iovss sg13_hv_nmos l=0.6um w=4.4um
Mclamp_g1 pad gate iovss iovss sg13_hv_nmos l=0.6um w=4.4um
Mclamp_g2 iovss gate pad iovss sg13_hv_nmos l=0.6um w=4.4um
Mclamp_g3 pad gate iovss iovss sg13_hv_nmos l=0.6um w=4.4um
Mclamp_g4 iovss gate pad iovss sg13_hv_nmos l=0.6um w=4.4um
Mclamp_g5 pad gate iovss iovss sg13_hv_nmos l=0.6um w=4.4um
Mclamp_g6 iovss gate pad iovss sg13_hv_nmos l=0.6um w=4.4um
Mclamp_g7 pad gate iovss iovss sg13_hv_nmos l=0.6um w=4.4um
XOuterRing iovdd sg13g2_GuardRing_N16000W1980HFF
XInnerRing iovss sg13g2_GuardRing_P15280W1260HFF
DGATE iovss gate dantenna l=0.64um w=0.3um a=0.192p p=1.88u
.ends sg13g2_Clamp_N8N8D

.subckt sg13g2_Clamp_P8N8D iovss iovdd pad gate
Mclamp_g0_r0 iovdd gate pad iovdd sg13_hv_pmos l=0.6um w=6.66um
Mclamp_g0_r1 iovdd gate pad iovdd sg13_hv_pmos l=0.6um w=6.66um
Mclamp_g1_r0 pad gate iovdd iovdd sg13_hv_pmos l=0.6um w=6.66um
Mclamp_g1_r1 pad gate iovdd iovdd sg13_hv_pmos l=0.6um w=6.66um
Mclamp_g2_r0 iovdd gate pad iovdd sg13_hv_pmos l=0.6um w=6.66um
Mclamp_g2_r1 iovdd gate pad iovdd sg13_hv_pmos l=0.6um w=6.66um
Mclamp_g3_r0 pad gate iovdd iovdd sg13_hv_pmos l=0.6um w=6.66um
Mclamp_g3_r1 pad gate iovdd iovdd sg13_hv_pmos l=0.6um w=6.66um
Mclamp_g4_r0 iovdd gate pad iovdd sg13_hv_pmos l=0.6um w=6.66um
Mclamp_g4_r1 iovdd gate pad iovdd sg13_hv_pmos l=0.6um w=6.66um
Mclamp_g5_r0 pad gate iovdd iovdd sg13_hv_pmos l=0.6um w=6.66um
Mclamp_g5_r1 pad gate iovdd iovdd sg13_hv_pmos l=0.6um w=6.66um
Mclamp_g6_r0 iovdd gate pad iovdd sg13_hv_pmos l=0.6um w=6.66um
Mclamp_g6_r1 iovdd gate pad iovdd sg13_hv_pmos l=0.6um w=6.66um
Mclamp_g7_r0 pad gate iovdd iovdd sg13_hv_pmos l=0.6um w=6.66um
Mclamp_g7_r1 pad gate iovdd iovdd sg13_hv_pmos l=0.6um w=6.66um
XOuterRing iovss sg13g2_GuardRing_P16000W3852HFF
XInnerRing iovdd sg13g2_GuardRing_N15280W3132HTF
DGATE gate iovdd dpantenna l=0.64um w=0.3um a=0.192p p=1.88u
.ends sg13g2_Clamp_P8N8D

.subckt sg13g2_GateLevelUpInv vdd vss iovdd core ngate pgate
Xngate_levelup vdd iovdd vss core ngate sg13g2_LevelUpInv
Xpgate_levelup vdd iovdd vss core pgate sg13g2_LevelUpInv
.ends sg13g2_GateLevelUpInv

.subckt sg13g2_LevelUpInv vdd iovdd vss i o
Mn_i_inv i_n i vss vss sg13_lv_nmos l=0.13um w=2.75um
Mp_i_inv i_n i vdd vdd sg13_lv_pmos l=0.13um w=4.75um
Mn_lvld_n vss i_n lvld_n vss sg13_hv_nmos l=0.45um w=1.9um
Mn_lvld lvld i vss vss sg13_hv_nmos l=0.45um w=1.9um
Mp_lvld_n iovdd lvld lvld_n iovdd sg13_hv_pmos l=0.45um w=0.3um
Mp_lvld lvld lvld_n iovdd iovdd sg13_hv_pmos l=0.45um w=0.3um
Mn_lvld_n_inv vss lvld_n o vss sg13_hv_nmos l=0.45um w=1.9um
Mp_lvld_n_inv iovdd lvld_n o iovdd sg13_hv_pmos l=0.45um w=3.9um
.ends sg13g2_LevelUpInv

.subckt sg13g2_LevelDown vdd vss iovdd iovss pad core
Mn_hvinv vss padres padres_n vss sg13_hv_nmos l=0.45um w=2.65um
Mp_hvinv vdd padres padres_n vdd sg13_hv_pmos l=0.45um w=4.65um
Mn_lvinv core padres_n vss vss sg13_lv_nmos l=0.13um w=2.75um
Mp_lvinv core padres_n vdd vdd sg13_lv_pmos l=0.13um w=4.75um
Xsecondprot iovdd iovss pad padres sg13g2_SecondaryProtection
.ends sg13g2_LevelDown

*************************
*** empty cells

.subckt sg13g2_io_tie vdd vss
.ends sg13g2_io_tie
