* Extracted by KLayout with SG13G2 LVS runset on : 11/05/2024 18:13

* cell UHEE628_S2024
* pin PAD,RES
* pin CK4,PAD
* pin CK5,PAD
* pin CK6,PAD
* pin IOVDD
* pin AVDD
* pin CORE
* pin CORE
* pin CORE
* pin CORE
* pin IN6,PAD
* pin OUT6
* pin VDD
* pin dout
* pin CORE
* pin IN5,PAD
* pin OUT5
* pin CORE
* pin IN4,PAD
* pin OUT4
* pin CORE
* pin PAD,VLO
* pin CORE
* pin PAD,VHI
* pin CORE
* pin IN3,PAD
* pin OUT3
* pin CORE
* pin PAD,VLDO
* pin IN2,PAD
* pin OUT2
* pin CORE
* pin CORE
* pin IN1,PAD
* pin OUT1
* pin CORE
* pin PAD,VREF
* pin CORE
* pin CORE
* pin CORE
* pin CORE
* pin CK3,PAD
* pin CK2,PAD
* pin CK1,PAD
* pin VSS
.SUBCKT UHEE628_S2024 PAD|RES CK4|PAD CK5|PAD CK6|PAD IOVDD AVDD CORE CORE$1
+ CORE$2 CORE$3 IN6|PAD OUT6 VDD dout CORE$4 IN5|PAD OUT5 CORE$5 IN4|PAD OUT4
+ CORE$6 PAD|VLO CORE$7 PAD|VHI CORE$8 IN3|PAD OUT3 CORE$9 PAD|VLDO IN2|PAD
+ OUT2 CORE$10 CORE$11 IN1|PAD OUT1 CORE$12 PAD|VREF CORE$13 CORE$14 CORE$15
+ CORE$16 CK3|PAD CK2|PAD CK1|PAD VSS
* device instance $1 r0 *1 500.255,239.005 sg13_lv_nmos
M$1 \$4781 \$4786 VSS VSS sg13_lv_nmos W=2.75 L=0.13
* device instance $2 r0 *1 700.255,239.005 sg13_lv_nmos
M$2 \$4782 \$4787 VSS VSS sg13_lv_nmos W=2.75 L=0.13
* device instance $3 r0 *1 800.255,239.005 sg13_lv_nmos
M$3 \$4783 \$4788 VSS VSS sg13_lv_nmos W=2.75 L=0.13
* device instance $4 r0 *1 900.255,239.005 sg13_lv_nmos
M$4 \$4784 \$4789 VSS VSS sg13_lv_nmos W=2.75 L=0.13
* device instance $5 r0 *1 431.875,301.115 sg13_lv_nmos
M$5 \$5924 \$6114 VSS VSS sg13_lv_nmos W=1.44 L=0.13
* device instance $7 r0 *1 432.905,301.115 sg13_lv_nmos
M$7 \$5924 \$6204 \$6101 VSS sg13_lv_nmos W=1.44 L=0.13
* device instance $9 r0 *1 434.755,301.115 sg13_lv_nmos
M$9 \$5925 \$6156 VSS VSS sg13_lv_nmos W=1.44 L=0.13
* device instance $11 r0 *1 435.785,301.115 sg13_lv_nmos
M$11 \$5925 \$6154 \$5926 VSS sg13_lv_nmos W=1.44 L=0.13
* device instance $13 r0 *1 437.56,301.14 sg13_lv_nmos
M$13 VSS \$6101 \$5927 VSS sg13_lv_nmos W=2.96 L=0.13
* device instance $17 r0 *1 440.44,301.14 sg13_lv_nmos
M$17 VSS \$5926 \$5928 VSS sg13_lv_nmos W=2.96 L=0.13
* device instance $21 r0 *1 443.26,301.14 sg13_lv_nmos
M$21 VSS \$5927 \$5929 VSS sg13_lv_nmos W=5.920000000000001 L=0.13
* device instance $29 r0 *1 448.06,301.14 sg13_lv_nmos
M$29 VSS \$5928 \$5930 VSS sg13_lv_nmos W=5.920000000000001 L=0.13
* device instance $37 r0 *1 1060.995,297.48 sg13_lv_nmos
M$37 \$5726 dout VSS VSS sg13_lv_nmos W=2.75 L=0.13
* device instance $38 r0 *1 456.79,303.21 sg13_lv_nmos
M$38 VSS \$5930 \$6122 VSS sg13_lv_nmos W=0.74 L=0.13
* device instance $39 r0 *1 460.28,303.305 sg13_lv_nmos
M$39 VSS \$5911 \$6127 VSS sg13_lv_nmos W=0.55 L=0.12999999999999998
* device instance $40 r0 *1 461.13,303.21 sg13_lv_nmos
M$40 VSS \$5929 \$6138 VSS sg13_lv_nmos W=0.74 L=0.13
* device instance $41 r0 *1 461.44,303.21 sg13_lv_nmos
M$41 \$6138 \$6127 \$6124 VSS sg13_lv_nmos W=0.74 L=0.13
* device instance $42 r0 *1 1060.995,300.99 sg13_lv_nmos
M$42 \$5931 dout VSS VSS sg13_lv_nmos W=2.75 L=0.13
* device instance $43 r0 *1 431.085,305.825 sg13_lv_nmos
M$43 VSS \$4784 \$6149 VSS sg13_lv_nmos W=1.48 L=0.13
* device instance $45 r0 *1 433.06,305.8 sg13_lv_nmos
M$45 \$6150 \$6149 VSS VSS sg13_lv_nmos W=1.44 L=0.13
* device instance $47 r0 *1 434.09,305.8 sg13_lv_nmos
M$47 \$6150 \$6114 \$6163 VSS sg13_lv_nmos W=1.44 L=0.13
* device instance $49 r0 *1 435.865,305.825 sg13_lv_nmos
M$49 VSS \$6163 \$6151 VSS sg13_lv_nmos W=2.96 L=0.13
* device instance $53 r0 *1 438.745,305.825 sg13_lv_nmos
M$53 VSS \$6151 \$6152 VSS sg13_lv_nmos W=2.96 L=0.13
* device instance $57 r0 *1 441.625,305.825 sg13_lv_nmos
M$57 VSS \$6152 \$6153 VSS sg13_lv_nmos W=2.96 L=0.13
* device instance $61 r0 *1 444.505,305.825 sg13_lv_nmos
M$61 VSS \$6153 \$6154 VSS sg13_lv_nmos W=2.96 L=0.13
* device instance $65 r0 *1 447.385,305.825 sg13_lv_nmos
M$65 VSS \$6154 \$6155 VSS sg13_lv_nmos W=2.96 L=0.13
* device instance $69 r0 *1 450.265,305.825 sg13_lv_nmos
M$69 VSS \$6155 \$6156 VSS sg13_lv_nmos W=2.96 L=0.13
* device instance $73 r0 *1 457.97,303.37 sg13_lv_nmos
M$73 \$6126 \$5929 \$6141 VSS sg13_lv_nmos W=0.64 L=0.13
* device instance $74 r0 *1 458.48,303.37 sg13_lv_nmos
M$74 VSS \$5911 \$6141 VSS sg13_lv_nmos W=0.64 L=0.13
* device instance $75 r0 *1 458.99,303.32 sg13_lv_nmos
M$75 VSS \$6126 \$6123 VSS sg13_lv_nmos W=0.74 L=0.13
* device instance $76 r0 *1 465.4,304.425 sg13_lv_nmos
M$76 \$6128 \$6155 \$6117 VSS sg13_lv_nmos W=2.0 L=0.13
* device instance $77 r0 *1 465.91,304.425 sg13_lv_nmos
M$77 \$6117 \$5929 \$6129 VSS sg13_lv_nmos W=2.0 L=0.13
* device instance $78 r0 *1 469.22,304.415 sg13_lv_nmos
M$78 \$6105 \$5930 \$6129 VSS sg13_lv_nmos W=2.0 L=0.13
* device instance $79 r0 *1 469.73,304.415 sg13_lv_nmos
M$79 \$6129 \$4781 \$6102 VSS sg13_lv_nmos W=2.0 L=0.13
* device instance $80 r0 *1 431.05,310.465 sg13_lv_nmos
M$80 VSS \$6149 \$6458 VSS sg13_lv_nmos W=1.48 L=0.13
* device instance $82 r0 *1 433.025,310.44 sg13_lv_nmos
M$82 \$6200 \$6156 VSS VSS sg13_lv_nmos W=1.44 L=0.13
* device instance $84 r0 *1 434.055,310.44 sg13_lv_nmos
M$84 \$6200 \$6458 \$6392 VSS sg13_lv_nmos W=1.44 L=0.13
* device instance $86 r0 *1 435.83,310.475 sg13_lv_nmos
M$86 VSS \$6392 \$6201 VSS sg13_lv_nmos W=2.96 L=0.13
* device instance $90 r0 *1 438.71,310.475 sg13_lv_nmos
M$90 VSS \$6201 \$6202 VSS sg13_lv_nmos W=2.96 L=0.13
* device instance $94 r0 *1 441.59,310.475 sg13_lv_nmos
M$94 VSS \$6202 \$6203 VSS sg13_lv_nmos W=2.96 L=0.13
* device instance $98 r0 *1 444.47,310.475 sg13_lv_nmos
M$98 VSS \$6203 \$6204 VSS sg13_lv_nmos W=2.96 L=0.13
* device instance $102 r0 *1 447.35,310.475 sg13_lv_nmos
M$102 VSS \$6204 \$6205 VSS sg13_lv_nmos W=2.96 L=0.13
* device instance $106 r0 *1 450.23,310.475 sg13_lv_nmos
M$106 VSS \$6205 \$6114 VSS sg13_lv_nmos W=2.96 L=0.13
* device instance $110 r0 *1 457.825,307.85 sg13_lv_nmos
M$110 \$6178 \$6123 PAD|VLO VSS sg13_lv_nmos W=0.5 L=0.13
* device instance $111 r0 *1 460.21,307.855 sg13_lv_nmos
M$111 \$6178 \$5930 \$6182 VSS sg13_lv_nmos W=2.0 L=0.13
* device instance $112 r0 *1 465.395,308.555 sg13_lv_nmos
M$112 VSS \$6128 \$6128 VSS sg13_lv_nmos W=2.5 L=1.5
* device instance $113 r0 *1 469.615,308.555 sg13_lv_nmos
M$113 VSS \$6105 \$6102 VSS sg13_lv_nmos W=2.5 L=1.5
* device instance $114 r0 *1 431.685,321.635 sg13_lv_nmos
M$114 VSS \$5929 \$6956 VSS sg13_lv_nmos W=0.74 L=0.13
* device instance $115 r0 *1 432.865,321.795 sg13_lv_nmos
M$115 \$6957 \$5930 \$7027 VSS sg13_lv_nmos W=0.64 L=0.13
* device instance $116 r0 *1 433.375,321.795 sg13_lv_nmos
M$116 VSS \$6767 \$7027 VSS sg13_lv_nmos W=0.64 L=0.13
* device instance $117 r0 *1 433.885,321.745 sg13_lv_nmos
M$117 VSS \$6957 \$6958 VSS sg13_lv_nmos W=0.74 L=0.13
* device instance $118 r0 *1 435.175,321.73 sg13_lv_nmos
M$118 VSS \$6767 \$6959 VSS sg13_lv_nmos W=0.55 L=0.12999999999999998
* device instance $119 r0 *1 436.025,321.635 sg13_lv_nmos
M$119 VSS \$5930 \$7030 VSS sg13_lv_nmos W=0.74 L=0.13
* device instance $120 r0 *1 436.335,321.635 sg13_lv_nmos
M$120 \$7030 \$6959 \$6960 VSS sg13_lv_nmos W=0.74 L=0.13
* device instance $121 r0 *1 440.295,322.85 sg13_lv_nmos
M$121 \$7024 \$6205 \$6759 VSS sg13_lv_nmos W=2.0 L=0.13
* device instance $122 r0 *1 440.805,322.85 sg13_lv_nmos
M$122 \$6759 \$5930 \$7025 VSS sg13_lv_nmos W=2.0 L=0.13
* device instance $123 r0 *1 444.115,322.84 sg13_lv_nmos
M$123 \$6768 \$5929 \$7025 VSS sg13_lv_nmos W=2.0 L=0.13
* device instance $124 r0 *1 444.625,322.84 sg13_lv_nmos
M$124 \$7025 \$4781 \$6182 VSS sg13_lv_nmos W=2.0 L=0.13
* device instance $125 r0 *1 451.1,325.71 sg13_lv_nmos
M$125 VSS \$5929 \$7289 VSS sg13_lv_nmos W=0.74 L=0.13
* device instance $126 r0 *1 452.54,325.71 sg13_lv_nmos
M$126 VSS \$4781 \$7290 VSS sg13_lv_nmos W=0.74 L=0.13
* device instance $127 r0 *1 453.94,325.71 sg13_lv_nmos
M$127 VSS \$7316 \$5911 VSS sg13_lv_nmos W=1.48 L=0.13
* device instance $129 r0 *1 454.96,325.76 sg13_lv_nmos
M$129 VSS \$7369 \$7316 VSS sg13_lv_nmos W=0.64 L=0.13
* device instance $130 r0 *1 456.195,325.53 sg13_lv_nmos
M$130 \$7291 \$7369 \$7300 VSS sg13_lv_nmos W=0.42 L=0.13
* device instance $131 r0 *1 456.505,325.53 sg13_lv_nmos
M$131 \$7300 \$7290 VSS VSS sg13_lv_nmos W=0.42 L=0.13
* device instance $132 r0 *1 457.085,325.915 sg13_lv_nmos
M$132 VSS \$7317 \$7292 VSS sg13_lv_nmos W=0.74 L=0.13
* device instance $133 r0 *1 464.925,325.53 sg13_lv_nmos
M$133 \$7295 \$7296 VSS VSS sg13_lv_nmos W=0.42 L=0.13
* device instance $134 r0 *1 465.435,325.53 sg13_lv_nmos
M$134 VSS \$7290 \$7303 VSS sg13_lv_nmos W=0.42 L=0.13
* device instance $135 r0 *1 465.745,325.53 sg13_lv_nmos
M$135 \$7303 \$7306 \$7296 VSS sg13_lv_nmos W=0.42 L=0.13
* device instance $136 r0 *1 467.785,325.64 sg13_lv_nmos
M$136 VSS \$7306 \$7298 VSS sg13_lv_nmos W=0.64 L=0.13
* device instance $137 r0 *1 466.765,325.69 sg13_lv_nmos
M$137 VSS \$7306 \$7297 VSS sg13_lv_nmos W=1.48 L=0.13
* device instance $139 r0 *1 468.805,325.69 sg13_lv_nmos
M$139 VSS \$7298 \$6767 VSS sg13_lv_nmos W=1.48 L=0.13
* device instance $141 r0 *1 470.56,325.71 sg13_lv_nmos
M$141 VSS \$6767 dout VSS sg13_lv_nmos W=1.48 L=0.13
* device instance $143 r0 *1 432.72,326.275 sg13_lv_nmos
M$143 \$7305 \$6958 PAD|VLO VSS sg13_lv_nmos W=0.5 L=0.13
* device instance $144 r0 *1 435.105,326.28 sg13_lv_nmos
M$144 \$7305 \$5929 CORE$4 VSS sg13_lv_nmos W=2.0 L=0.13
* device instance $145 r0 *1 440.29,326.98 sg13_lv_nmos
M$145 VSS \$7024 \$7024 VSS sg13_lv_nmos W=2.5 L=1.5
* device instance $146 r0 *1 444.51,326.98 sg13_lv_nmos
M$146 VSS \$6768 \$6182 VSS sg13_lv_nmos W=2.5 L=1.5
* device instance $147 r0 *1 457.62,331.325 sg13_lv_nmos
M$147 \$7353 \$5929 \$6102 VSS sg13_lv_nmos W=2.0 L=0.13
* device instance $148 r0 *1 458.175,325.595 sg13_lv_nmos
M$148 VSS \$7290 \$7301 VSS sg13_lv_nmos W=0.42 L=0.13
* device instance $149 r0 *1 458.485,325.595 sg13_lv_nmos
M$149 \$7301 \$7292 \$7293 VSS sg13_lv_nmos W=0.42 L=0.13
* device instance $150 r0 *1 459.26,326.32 sg13_lv_nmos
M$150 \$7291 \$7294 \$7317 VSS sg13_lv_nmos W=0.42 L=0.13
* device instance $151 r0 *1 459.77,326.32 sg13_lv_nmos
M$151 \$7317 \$7324 \$7293 VSS sg13_lv_nmos W=0.42 L=0.13
* device instance $152 r0 *1 460.575,329.87 sg13_lv_nmos
M$152 VSS \$6128 \$7351 VSS sg13_lv_nmos W=2.0 L=1.0
* device instance $153 r0 *1 460.575,330.815 sg13_lv_nmos
M$153 \$7351 \$5930 \$7364 VSS sg13_lv_nmos W=2.0 L=0.13
* device instance $154 r0 *1 460.575,331.325 sg13_lv_nmos
M$154 \$7364 \$7365 \$7363 VSS sg13_lv_nmos W=2.0 L=0.13
* device instance $155 r0 *1 461.03,325.795 sg13_lv_nmos
M$155 VSS \$7294 \$7324 VSS sg13_lv_nmos W=0.74 L=0.13
* device instance $156 r0 *1 462.13,325.795 sg13_lv_nmos
M$156 VSS \$5929 \$7294 VSS sg13_lv_nmos W=0.74 L=0.13
* device instance $157 r0 *1 463.65,329.87 sg13_lv_nmos
M$157 VSS \$7353 \$7352 VSS sg13_lv_nmos W=2.0 L=1.0
* device instance $158 r0 *1 463.65,330.815 sg13_lv_nmos
M$158 \$7352 \$5930 \$7366 VSS sg13_lv_nmos W=2.0 L=0.13
* device instance $159 r0 *1 463.65,331.325 sg13_lv_nmos
M$159 \$7366 \$7363 \$7365 VSS sg13_lv_nmos W=2.0 L=0.13
* device instance $160 r0 *1 463.34,325.915 sg13_lv_nmos
M$160 \$7306 \$7294 \$7295 VSS sg13_lv_nmos W=0.42 L=0.13
* device instance $161 r0 *1 463.875,325.755 sg13_lv_nmos
M$161 \$7292 \$7324 \$7306 VSS sg13_lv_nmos W=0.74 L=0.13
* device instance $162 r0 *1 467.385,330.81 sg13_lv_nmos
M$162 VSS \$7365 \$7367 VSS sg13_lv_nmos W=2.0 L=0.13
* device instance $163 r0 *1 467.385,331.32 sg13_lv_nmos
M$163 \$7367 \$7369 \$7368 VSS sg13_lv_nmos W=2.0 L=0.13
* device instance $164 r0 *1 470.52,330.81 sg13_lv_nmos
M$164 VSS \$7363 \$7370 VSS sg13_lv_nmos W=2.0 L=0.13
* device instance $165 r0 *1 470.52,331.32 sg13_lv_nmos
M$165 \$7370 \$7368 \$7369 VSS sg13_lv_nmos W=2.0 L=0.13
* device instance $166 r0 *1 458.328,399.377 sg13_lv_nmos
M$166 \$9622 \$10203 CORE$5 VSS sg13_lv_nmos W=2.0 L=0.13
* device instance $167 r0 *1 459.485,394.652 sg13_lv_nmos
M$167 PAD|VLO \$9614 \$9622 VSS sg13_lv_nmos W=0.5 L=0.13
* device instance $168 r0 *1 464.231,393.708 sg13_lv_nmos
M$168 \$9614 \$9616 VSS VSS sg13_lv_nmos W=0.74 L=0.13
* device instance $169 r0 *1 464.741,393.758 sg13_lv_nmos
M$169 VSS \$9642 \$9620 VSS sg13_lv_nmos W=0.64 L=0.13
* device instance $170 r0 *1 465.251,393.758 sg13_lv_nmos
M$170 \$9620 \$10164 \$9616 VSS sg13_lv_nmos W=0.64 L=0.13
* device instance $171 r0 *1 476.371,393.758 sg13_lv_nmos
M$171 \$9617 \$10203 \$9618 VSS sg13_lv_nmos W=0.64 L=0.13
* device instance $172 r0 *1 476.881,393.758 sg13_lv_nmos
M$172 VSS \$9623 \$9618 VSS sg13_lv_nmos W=0.64 L=0.13
* device instance $173 r0 *1 477.391,393.708 sg13_lv_nmos
M$173 VSS \$9617 \$9615 VSS sg13_lv_nmos W=0.74 L=0.13
* device instance $174 r0 *1 482.137,394.652 sg13_lv_nmos
M$174 PAD|VLO \$9615 \$9895 VSS sg13_lv_nmos W=0.5 L=0.13
* device instance $175 r0 *1 483.294,399.377 sg13_lv_nmos
M$175 \$10395 \$10164 \$9895 VSS sg13_lv_nmos W=2.0 L=0.13
* device instance $176 r0 *1 1060.995,397.48 sg13_lv_nmos
M$176 \$9634 \$9642 VSS VSS sg13_lv_nmos W=2.75 L=0.13
* device instance $177 r0 *1 1060.995,400.99 sg13_lv_nmos
M$177 \$10158 \$9642 VSS VSS sg13_lv_nmos W=2.75 L=0.13
* device instance $178 r0 *1 443.526,403.27 sg13_lv_nmos
M$178 \$10354 \$10164 \$9607 VSS sg13_lv_nmos W=2.0 L=0.13
* device instance $179 r0 *1 448.102,403.27 sg13_lv_nmos
M$179 \$9607 \$11319 \$10167 VSS sg13_lv_nmos W=2.0 L=0.13
* device instance $180 r0 *1 493.52,403.27 sg13_lv_nmos
M$180 \$10168 \$10915 \$9827 VSS sg13_lv_nmos W=2.0 L=0.13
* device instance $181 r0 *1 498.096,403.27 sg13_lv_nmos
M$181 \$9827 \$10203 \$10355 VSS sg13_lv_nmos W=2.0 L=0.13
* device instance $182 r0 *1 454.041,411.248 sg13_lv_nmos
M$182 \$10167 \$10167 VSS VSS sg13_lv_nmos W=2.5 L=1.5
* device instance $183 r0 *1 458.723,405.86 sg13_lv_nmos
M$183 VSS \$10203 \$9825 VSS sg13_lv_nmos W=0.74 L=0.13
* device instance $184 r0 *1 462.071,405.955 sg13_lv_nmos
M$184 VSS \$9642 \$10190 VSS sg13_lv_nmos W=0.55 L=0.12999999999999998
* device instance $185 r0 *1 462.921,405.86 sg13_lv_nmos
M$185 VSS \$10164 \$10197 VSS sg13_lv_nmos W=0.74 L=0.13
* device instance $186 r0 *1 463.231,405.86 sg13_lv_nmos
M$186 \$10197 \$10190 \$10191 VSS sg13_lv_nmos W=0.74 L=0.13
* device instance $187 r0 *1 478.391,405.86 sg13_lv_nmos
M$187 \$10192 \$10193 \$10200 VSS sg13_lv_nmos W=0.74 L=0.13
* device instance $188 r0 *1 478.701,405.86 sg13_lv_nmos
M$188 \$10200 \$10203 VSS VSS sg13_lv_nmos W=0.74 L=0.13
* device instance $189 r0 *1 479.551,405.955 sg13_lv_nmos
M$189 VSS \$9623 \$10193 VSS sg13_lv_nmos W=0.55 L=0.12999999999999998
* device instance $190 r0 *1 482.899,405.86 sg13_lv_nmos
M$190 \$9826 \$10164 VSS VSS sg13_lv_nmos W=0.74 L=0.13
* device instance $191 r0 *1 487.581,411.248 sg13_lv_nmos
M$191 VSS \$10168 \$10168 VSS sg13_lv_nmos W=2.5 L=1.5
* device instance $192 r0 *1 454.041,420.794 sg13_lv_nmos
M$192 \$10395 \$9608 VSS VSS sg13_lv_nmos W=2.5 L=1.5
* device instance $193 r0 *1 458.979,423.251 sg13_lv_nmos
M$193 \$10395 \$4781 \$10354 VSS sg13_lv_nmos W=2.0 L=0.13
* device instance $194 r0 *1 463.555,423.251 sg13_lv_nmos
M$194 \$10354 \$10203 \$9608 VSS sg13_lv_nmos W=2.0 L=0.13
* device instance $195 r0 *1 478.067,423.251 sg13_lv_nmos
M$195 \$9609 \$10164 \$10355 VSS sg13_lv_nmos W=2.0 L=0.13
* device instance $196 r0 *1 482.643,423.251 sg13_lv_nmos
M$196 \$10355 \$4781 \$10396 VSS sg13_lv_nmos W=2.0 L=0.13
* device instance $197 r0 *1 487.581,420.794 sg13_lv_nmos
M$197 VSS \$9609 \$10396 VSS sg13_lv_nmos W=2.5 L=1.5
* device instance $198 r0 *1 452.732,430.97 sg13_lv_nmos
M$198 \$10910 \$11311 VSS VSS sg13_lv_nmos W=1.44 L=0.13
* device instance $200 r0 *1 453.762,430.97 sg13_lv_nmos
M$200 \$10910 \$11320 \$10919 VSS sg13_lv_nmos W=1.44 L=0.13
* device instance $202 r0 *1 455.996,430.995 sg13_lv_nmos
M$202 VSS \$10919 \$10911 VSS sg13_lv_nmos W=2.96 L=0.13
* device instance $206 r0 *1 459.411,430.995 sg13_lv_nmos
M$206 VSS \$10911 \$10912 VSS sg13_lv_nmos W=2.96 L=0.13
* device instance $210 r0 *1 462.647,430.995 sg13_lv_nmos
M$210 VSS \$10912 \$10913 VSS sg13_lv_nmos W=2.96 L=0.13
* device instance $214 r0 *1 466.172,430.995 sg13_lv_nmos
M$214 VSS \$10913 \$10914 VSS sg13_lv_nmos W=2.96 L=0.13
* device instance $218 r0 *1 470.029,430.995 sg13_lv_nmos
M$218 VSS \$10914 \$10915 VSS sg13_lv_nmos W=2.96 L=0.13
* device instance $222 r0 *1 473.998,430.995 sg13_lv_nmos
M$222 VSS \$10915 \$10916 VSS sg13_lv_nmos W=2.96 L=0.13
* device instance $226 r0 *1 477.918,430.97 sg13_lv_nmos
M$226 \$10917 \$10916 VSS VSS sg13_lv_nmos W=1.44 L=0.13
* device instance $228 r0 *1 478.948,430.97 sg13_lv_nmos
M$228 \$10917 \$10914 \$10920 VSS sg13_lv_nmos W=1.44 L=0.13
* device instance $230 r0 *1 481.602,430.995 sg13_lv_nmos
M$230 VSS \$10920 \$10918 VSS sg13_lv_nmos W=2.96 L=0.13
* device instance $234 r0 *1 484.998,430.995 sg13_lv_nmos
M$234 VSS \$10918 \$10164 VSS sg13_lv_nmos W=5.920000000000001 L=0.13
* device instance $242 r0 *1 446.843,438.963 sg13_lv_nmos
M$242 VSS \$4783 \$11311 VSS sg13_lv_nmos W=1.48 L=0.13
* device instance $244 r0 *1 449.364,438.963 sg13_lv_nmos
M$244 VSS \$11311 \$11312 VSS sg13_lv_nmos W=1.48 L=0.13
* device instance $246 r0 *1 452.01,438.938 sg13_lv_nmos
M$246 \$11313 \$11312 VSS VSS sg13_lv_nmos W=1.44 L=0.13
* device instance $248 r0 *1 453.04,438.938 sg13_lv_nmos
M$248 \$11313 \$10916 \$11314 VSS sg13_lv_nmos W=1.44 L=0.13
* device instance $250 r0 *1 455.373,438.964 sg13_lv_nmos
M$250 VSS \$11314 \$11315 VSS sg13_lv_nmos W=2.96 L=0.13
* device instance $254 r0 *1 459.841,438.964 sg13_lv_nmos
M$254 VSS \$11315 \$11316 VSS sg13_lv_nmos W=2.96 L=0.13
* device instance $258 r0 *1 463.257,438.964 sg13_lv_nmos
M$258 VSS \$11316 \$11317 VSS sg13_lv_nmos W=2.96 L=0.13
* device instance $262 r0 *1 466.777,438.964 sg13_lv_nmos
M$262 VSS \$11317 \$11318 VSS sg13_lv_nmos W=2.96 L=0.13
* device instance $266 r0 *1 470.634,438.964 sg13_lv_nmos
M$266 VSS \$11318 \$11319 VSS sg13_lv_nmos W=2.96 L=0.13
* device instance $270 r0 *1 474.603,438.964 sg13_lv_nmos
M$270 VSS \$11319 \$11320 VSS sg13_lv_nmos W=2.96 L=0.13
* device instance $274 r0 *1 478.273,438.939 sg13_lv_nmos
M$274 \$11321 \$11320 VSS VSS sg13_lv_nmos W=1.44 L=0.13
* device instance $276 r0 *1 479.303,438.939 sg13_lv_nmos
M$276 \$11321 \$11318 \$11322 VSS sg13_lv_nmos W=1.44 L=0.13
* device instance $278 r0 *1 480.059,445.671 sg13_lv_nmos
M$278 VSS \$11653 \$11502 VSS sg13_lv_nmos W=2.0 L=1.0
* device instance $279 r0 *1 481.957,438.964 sg13_lv_nmos
M$279 VSS \$11322 \$11323 VSS sg13_lv_nmos W=2.96 L=0.13
* device instance $283 r0 *1 485.353,438.964 sg13_lv_nmos
M$283 VSS \$11323 \$10203 VSS sg13_lv_nmos W=5.920000000000001 L=0.13
* device instance $291 r0 *1 450.192,450.371 sg13_lv_nmos
M$291 VSS \$11675 \$11698 VSS sg13_lv_nmos W=2.0 L=0.13
* device instance $292 r0 *1 449.324,446.442 sg13_lv_nmos
M$292 VSS \$11650 \$9623 VSS sg13_lv_nmos W=1.48 L=0.13
* device instance $294 r0 *1 450.344,446.492 sg13_lv_nmos
M$294 VSS \$11702 \$11650 VSS sg13_lv_nmos W=0.64 L=0.13
* device instance $295 r0 *1 452.324,446.262 sg13_lv_nmos
M$295 \$11634 \$11702 \$11657 VSS sg13_lv_nmos W=0.42 L=0.13
* device instance $296 r0 *1 452.634,446.262 sg13_lv_nmos
M$296 \$11657 \$11635 VSS VSS sg13_lv_nmos W=0.42 L=0.13
* device instance $297 r0 *1 453.214,446.647 sg13_lv_nmos
M$297 VSS \$11671 \$11636 VSS sg13_lv_nmos W=0.74 L=0.13
* device instance $298 r0 *1 454.304,446.327 sg13_lv_nmos
M$298 VSS \$11635 \$11658 VSS sg13_lv_nmos W=0.42 L=0.13
* device instance $299 r0 *1 454.614,446.327 sg13_lv_nmos
M$299 \$11658 \$11636 \$11637 VSS sg13_lv_nmos W=0.42 L=0.13
* device instance $300 r0 *1 455.389,447.052 sg13_lv_nmos
M$300 \$11634 \$11638 \$11671 VSS sg13_lv_nmos W=0.42 L=0.13
* device instance $301 r0 *1 455.899,447.052 sg13_lv_nmos
M$301 \$11671 \$11651 \$11637 VSS sg13_lv_nmos W=0.42 L=0.13
* device instance $302 r0 *1 457.159,446.527 sg13_lv_nmos
M$302 VSS \$11638 \$11651 VSS sg13_lv_nmos W=0.74 L=0.13
* device instance $303 r0 *1 458.259,446.527 sg13_lv_nmos
M$303 VSS \$10203 \$11638 VSS sg13_lv_nmos W=0.74 L=0.13
* device instance $304 r0 *1 459.469,446.647 sg13_lv_nmos
M$304 \$11652 \$11638 \$11639 VSS sg13_lv_nmos W=0.42 L=0.13
* device instance $305 r0 *1 460.004,446.487 sg13_lv_nmos
M$305 \$11636 \$11651 \$11652 VSS sg13_lv_nmos W=0.74 L=0.13
* device instance $306 r0 *1 461.054,446.262 sg13_lv_nmos
M$306 \$11639 \$11640 VSS VSS sg13_lv_nmos W=0.42 L=0.13
* device instance $307 r0 *1 461.564,446.262 sg13_lv_nmos
M$307 VSS \$11635 \$11662 VSS sg13_lv_nmos W=0.42 L=0.13
* device instance $308 r0 *1 461.874,446.262 sg13_lv_nmos
M$308 \$11662 \$11652 \$11640 VSS sg13_lv_nmos W=0.42 L=0.13
* device instance $309 r0 *1 463.914,446.372 sg13_lv_nmos
M$309 VSS \$11652 \$11642 VSS sg13_lv_nmos W=0.64 L=0.13
* device instance $310 r0 *1 462.894,446.422 sg13_lv_nmos
M$310 VSS \$11652 \$11641 VSS sg13_lv_nmos W=1.48 L=0.13
* device instance $312 r0 *1 464.934,446.422 sg13_lv_nmos
M$312 VSS \$11642 \$9642 VSS sg13_lv_nmos W=1.48 L=0.13
* device instance $314 r0 *1 467.705,446.442 sg13_lv_nmos
M$314 VSS \$4781 \$11635 VSS sg13_lv_nmos W=0.74 L=0.13
* device instance $315 r0 *1 469.14,446.442 sg13_lv_nmos
M$315 VSS \$10203 \$11643 VSS sg13_lv_nmos W=0.74 L=0.13
* device instance $316 r0 *1 469.693,451.053 sg13_lv_nmos
M$316 \$11653 \$10203 \$10396 VSS sg13_lv_nmos W=2.0 L=0.13
* device instance $317 r0 *1 480.059,451.332 sg13_lv_nmos
M$317 VSS \$10168 \$11691 VSS sg13_lv_nmos W=2.0 L=1.0
* device instance $318 r0 *1 483.419,452.999 sg13_lv_nmos
M$318 \$11675 \$11631 \$11703 VSS sg13_lv_nmos W=2.0 L=0.13
* device instance $319 r0 *1 483.419,447.338 sg13_lv_nmos
M$319 \$11631 \$11675 \$11654 VSS sg13_lv_nmos W=2.0 L=0.13
* device instance $320 r0 *1 485.064,447.338 sg13_lv_nmos
M$320 \$11654 \$10164 \$11502 VSS sg13_lv_nmos W=2.0 L=0.13
* device instance $321 r0 *1 485.064,452.999 sg13_lv_nmos
M$321 \$11703 \$10164 \$11691 VSS sg13_lv_nmos W=2.0 L=0.13
* device instance $322 r0 *1 450.192,456.171 sg13_lv_nmos
M$322 VSS \$11631 \$12313 VSS sg13_lv_nmos W=2.0 L=0.13
* device instance $323 r0 *1 450.234,453.87 sg13_lv_nmos
M$323 \$11702 \$12314 \$11698 VSS sg13_lv_nmos W=2.0 L=0.13
* device instance $324 r0 *1 450.234,459.67 sg13_lv_nmos
M$324 \$12314 \$11702 \$12313 VSS sg13_lv_nmos W=2.0 L=0.13
* device instance $325 r0 *1 1060.995,497.48 sg13_lv_nmos
M$325 \$13587 \$13721 VSS VSS sg13_lv_nmos W=2.75 L=0.13
* device instance $326 r0 *1 1060.995,500.99 sg13_lv_nmos
M$326 \$13967 \$13721 VSS VSS sg13_lv_nmos W=2.75 L=0.13
* device instance $327 r0 *1 485.618,504.427 sg13_lv_nmos
M$327 \$13989 \$13995 \$14000 VSS sg13_lv_nmos W=0.42 L=0.13
* device instance $328 r0 *1 486.008,504.427 sg13_lv_nmos
M$328 \$14000 \$13990 VSS VSS sg13_lv_nmos W=0.42 L=0.13
* device instance $329 r0 *1 486.568,504.427 sg13_lv_nmos
M$329 VSS \$13978 \$13999 VSS sg13_lv_nmos W=0.42 L=0.13
* device instance $330 r0 *1 486.923,504.427 sg13_lv_nmos
M$330 \$13999 \$13989 \$13990 VSS sg13_lv_nmos W=0.42 L=0.13
* device instance $331 r0 *1 483.978,504.537 sg13_lv_nmos
M$331 VSS \$13996 \$14005 VSS sg13_lv_nmos W=0.64 L=0.13
* device instance $332 r0 *1 484.648,504.537 sg13_lv_nmos
M$332 \$14005 \$13988 \$13989 VSS sg13_lv_nmos W=0.64 L=0.13
* device instance $333 r0 *1 482.098,504.652 sg13_lv_nmos
M$333 \$13987 \$13995 \$13996 VSS sg13_lv_nmos W=0.42 L=0.13
* device instance $334 r0 *1 482.608,504.652 sg13_lv_nmos
M$334 \$13996 \$13988 \$14010 VSS sg13_lv_nmos W=0.42 L=0.13
* device instance $335 r0 *1 482.998,504.652 sg13_lv_nmos
M$335 \$14010 \$14005 \$14009 VSS sg13_lv_nmos W=0.42 L=0.13
* device instance $336 r0 *1 483.358,504.652 sg13_lv_nmos
M$336 VSS \$13978 \$14009 VSS sg13_lv_nmos W=0.42 L=0.13
* device instance $337 r0 *1 476.768,504.592 sg13_lv_nmos
M$337 VSS \$14698 \$13986 VSS sg13_lv_nmos W=0.74 L=0.13
* device instance $338 r0 *1 478.818,504.452 sg13_lv_nmos
M$338 \$13987 \$14194 \$14002 VSS sg13_lv_nmos W=0.42 L=0.13
* device instance $339 r0 *1 479.188,504.452 sg13_lv_nmos
M$339 \$14002 \$13978 VSS VSS sg13_lv_nmos W=0.42 L=0.13
* device instance $340 r0 *1 487.963,504.592 sg13_lv_nmos
M$340 VSS \$13989 \$13991 VSS sg13_lv_nmos W=0.74 L=0.13
* device instance $341 r0 *1 489.163,504.497 sg13_lv_nmos
M$341 \$13992 \$13989 VSS VSS sg13_lv_nmos W=0.55 L=0.12999999999999998
* device instance $342 r0 *1 489.703,504.592 sg13_lv_nmos
M$342 VSS \$13992 \$13993 VSS sg13_lv_nmos W=0.74 L=0.13
* device instance $343 r0 *1 491.898,504.592 sg13_lv_nmos
M$343 VSS \$13993 \$13721 VSS sg13_lv_nmos W=1.48 L=0.13
* device instance $345 r0 *1 494.693,504.591 sg13_lv_nmos
M$345 VSS \$4781 \$13978 VSS sg13_lv_nmos W=0.74 L=0.13
* device instance $346 r0 *1 496.608,504.591 sg13_lv_nmos
M$346 VSS \$14006 \$13994 VSS sg13_lv_nmos W=1.48 L=0.13
* device instance $348 r0 *1 497.628,504.641 sg13_lv_nmos
M$348 VSS \$14194 \$14006 VSS sg13_lv_nmos W=0.64 L=0.13
* device instance $349 r0 *1 480.333,504.767 sg13_lv_nmos
M$349 VSS \$14698 \$13995 VSS sg13_lv_nmos W=0.74 L=0.13
* device instance $350 r0 *1 480.843,504.767 sg13_lv_nmos
M$350 VSS \$13995 \$13988 VSS sg13_lv_nmos W=0.74 L=0.13
* device instance $351 r0 *1 481.503,510.997 sg13_lv_nmos
M$351 VSS \$14179 \$14184 VSS sg13_lv_nmos W=2.0 L=1.0
* device instance $352 r0 *1 483.503,509.467 sg13_lv_nmos
M$352 \$14106 \$14698 \$14107 VSS sg13_lv_nmos W=2.0 L=0.13
* device instance $353 r0 *1 485.503,510.997 sg13_lv_nmos
M$353 VSS \$14107 \$14185 VSS sg13_lv_nmos W=2.0 L=1.0
* device instance $354 r0 *1 438.155,518.846 sg13_lv_nmos
M$354 VSS \$14231 \$14232 VSS sg13_lv_nmos W=2.96 L=0.13
* device instance $358 r0 *1 441.035,518.846 sg13_lv_nmos
M$358 VSS \$14232 \$14233 VSS sg13_lv_nmos W=2.96 L=0.13
* device instance $362 r0 *1 443.915,518.846 sg13_lv_nmos
M$362 VSS \$14233 \$14234 VSS sg13_lv_nmos W=2.96 L=0.13
* device instance $366 r0 *1 446.795,518.846 sg13_lv_nmos
M$366 VSS \$14234 \$14235 VSS sg13_lv_nmos W=2.96 L=0.13
* device instance $370 r0 *1 449.675,518.846 sg13_lv_nmos
M$370 VSS \$14235 \$14236 VSS sg13_lv_nmos W=2.96 L=0.13
* device instance $374 r0 *1 452.555,518.846 sg13_lv_nmos
M$374 VSS \$14236 \$14237 VSS sg13_lv_nmos W=2.96 L=0.13
* device instance $378 r0 *1 458.315,518.846 sg13_lv_nmos
M$378 VSS \$14238 \$14239 VSS sg13_lv_nmos W=2.96 L=0.13
* device instance $382 r0 *1 461.135,518.846 sg13_lv_nmos
M$382 VSS \$14239 \$14209 VSS sg13_lv_nmos W=5.920000000000001 L=0.13
* device instance $390 r0 *1 481.703,513.099 sg13_lv_nmos
M$390 \$14184 \$14209 \$14190 VSS sg13_lv_nmos W=2.0 L=0.13
* device instance $391 r0 *1 482.903,513.099 sg13_lv_nmos
M$391 \$14190 \$14210 \$14191 VSS sg13_lv_nmos W=2.0 L=0.13
* device instance $392 r0 *1 484.103,513.099 sg13_lv_nmos
M$392 \$14210 \$14191 \$14192 VSS sg13_lv_nmos W=2.0 L=0.13
* device instance $393 r0 *1 485.303,513.099 sg13_lv_nmos
M$393 \$14192 \$14209 \$14185 VSS sg13_lv_nmos W=2.0 L=0.13
* device instance $394 r0 *1 488.561,513.099 sg13_lv_nmos
M$394 VSS \$14210 \$14193 VSS sg13_lv_nmos W=2.0 L=0.13
* device instance $395 r0 *1 489.761,513.099 sg13_lv_nmos
M$395 \$14193 \$14194 \$14219 VSS sg13_lv_nmos W=2.0 L=0.13
* device instance $396 r0 *1 490.961,513.099 sg13_lv_nmos
M$396 \$14194 \$14219 \$14195 VSS sg13_lv_nmos W=2.0 L=0.13
* device instance $397 r0 *1 492.161,513.099 sg13_lv_nmos
M$397 \$14195 \$14191 VSS VSS sg13_lv_nmos W=2.0 L=0.13
* device instance $398 r0 *1 431.455,521.281 sg13_lv_nmos
M$398 VSS \$4782 \$14241 VSS sg13_lv_nmos W=1.48 L=0.13
* device instance $400 r0 *1 433.375,521.281 sg13_lv_nmos
M$400 VSS \$14241 \$14687 VSS sg13_lv_nmos W=1.48 L=0.13
* device instance $402 r0 *1 435.35,521.256 sg13_lv_nmos
M$402 \$14688 \$14237 VSS VSS sg13_lv_nmos W=1.44 L=0.13
* device instance $404 r0 *1 436.38,521.256 sg13_lv_nmos
M$404 \$14688 \$14687 \$14703 VSS sg13_lv_nmos W=1.44 L=0.13
* device instance $406 r0 *1 435.35,518.871 sg13_lv_nmos
M$406 \$14265 \$14694 VSS VSS sg13_lv_nmos W=1.44 L=0.13
* device instance $408 r0 *1 436.38,518.871 sg13_lv_nmos
M$408 \$14265 \$14241 \$14231 VSS sg13_lv_nmos W=1.44 L=0.13
* device instance $410 r0 *1 438.155,521.281 sg13_lv_nmos
M$410 VSS \$14703 \$14689 VSS sg13_lv_nmos W=2.96 L=0.13
* device instance $414 r0 *1 441.035,521.281 sg13_lv_nmos
M$414 VSS \$14689 \$14690 VSS sg13_lv_nmos W=2.96 L=0.13
* device instance $418 r0 *1 443.915,521.281 sg13_lv_nmos
M$418 VSS \$14690 \$14691 VSS sg13_lv_nmos W=2.96 L=0.13
* device instance $422 r0 *1 446.795,521.281 sg13_lv_nmos
M$422 VSS \$14691 \$14692 VSS sg13_lv_nmos W=2.96 L=0.13
* device instance $426 r0 *1 449.675,521.281 sg13_lv_nmos
M$426 VSS \$14692 \$14693 VSS sg13_lv_nmos W=2.96 L=0.13
* device instance $430 r0 *1 452.555,521.281 sg13_lv_nmos
M$430 VSS \$14693 \$14694 VSS sg13_lv_nmos W=2.96 L=0.13
* device instance $434 r0 *1 455.51,518.871 sg13_lv_nmos
M$434 \$14266 \$14237 VSS VSS sg13_lv_nmos W=1.44 L=0.13
* device instance $436 r0 *1 456.54,518.871 sg13_lv_nmos
M$436 \$14266 \$14235 \$14238 VSS sg13_lv_nmos W=1.44 L=0.13
* device instance $438 r0 *1 455.51,521.256 sg13_lv_nmos
M$438 \$14695 \$14694 VSS VSS sg13_lv_nmos W=1.44 L=0.13
* device instance $440 r0 *1 456.54,521.256 sg13_lv_nmos
M$440 \$14695 \$14692 \$14696 VSS sg13_lv_nmos W=1.44 L=0.13
* device instance $442 r0 *1 458.315,521.281 sg13_lv_nmos
M$442 VSS \$14696 \$14697 VSS sg13_lv_nmos W=2.96 L=0.13
* device instance $446 r0 *1 461.135,521.281 sg13_lv_nmos
M$446 VSS \$14697 \$14698 VSS sg13_lv_nmos W=5.920000000000001 L=0.13
* device instance $454 r0 *1 431.5,535.261 sg13_lv_nmos
M$454 VSS \$14698 \$15011 VSS sg13_lv_nmos W=0.74 L=0.13
* device instance $455 r0 *1 432.935,535.356 sg13_lv_nmos
M$455 VSS \$13993 \$15012 VSS sg13_lv_nmos W=0.55 L=0.12999999999999998
* device instance $456 r0 *1 433.785,535.261 sg13_lv_nmos
M$456 VSS \$14209 \$15024 VSS sg13_lv_nmos W=0.74 L=0.13
* device instance $457 r0 *1 434.095,535.261 sg13_lv_nmos
M$457 \$15024 \$15012 \$15013 VSS sg13_lv_nmos W=0.74 L=0.13
* device instance $458 r0 *1 435.785,535.421 sg13_lv_nmos
M$458 \$15014 \$14209 \$15027 VSS sg13_lv_nmos W=0.64 L=0.13
* device instance $459 r0 *1 436.295,535.421 sg13_lv_nmos
M$459 VSS \$13993 \$15027 VSS sg13_lv_nmos W=0.64 L=0.13
* device instance $460 r0 *1 436.805,535.371 sg13_lv_nmos