** sch_path: /foss/designs/EE628/5_Design/3_Real_circuits/UHEE628_S2024.sch
.subckt UHEE628_S2024 vldo ck1 ck3 avdd ck2 VDD vref out1 in1 in2 out2 out3 in3 iovdd vhi vlo out4 in4 out5 in5 out6 in6 ck6 ck5
+ ck4 res VSS
*.PININFO in1:I in2:I in3:I in4:I in5:I in6:I iovdd:B vlo:B avdd:B out1:O out2:O out3:O out4:O out5:O out6:O VSS:B VDD:B vldo:B
*+ ck3:I ck2:I ck1:I vref:I res:I ck4:I ck5:I ck6:I vhi:B
x10 vref ck3 vldo ck1 ck2 ck1_c ck3_c vref_c ck2_c out1_c in1 out1 in2 out2 out2_c in2_c VDD out3 in3_c in3 out3_c avdd iovdd vhi
+ vlo out4 in4_c in4 out4_c out5 in5_c out5_c in5 in6 in6_c out6 out6_c ck5_c ck4_c res_c ck6_c ck6 ck5 ck4 res in1_c VSS padring
x1 vhi vlo avdd VSS in1_c out1_c res_c ck1_c IDSM2_t1
x2 vlo vhi vldo VSS iovdd vref_c in2_c out2_c res_c ck2_c Team_2
x4 vhi vlo avdd in4_c out4_c res_c ck4_c IDSM2_T4
x5 vhi vlo out5_c avdd VSS in5_c res_c ck5_c Team5
x6 vhi vlo avdd VSS in6_c out6_c res_c ck6_c Team6_inner
x3 vhi vlo avdd VSS in3_c out3_c res_c ck3_c Team3
.ends

* expanding   symbol:  padring.sym # of pins=47
** sym_path: /foss/designs/EE628/5_Design/3_Real_circuits/padring.sym
** sch_path: /foss/designs/EE628/5_Design/3_Real_circuits/padring.sch
.subckt padring vref ck3 vldo ck1 ck2 ck1_c ck3_c vref_c ck2_c out1_c in1 out1 in2 out2 out2_c in2_c vdd out3 in3_c in3 out3_c
+ avdd iovdd vhi vlo out4 in4_c in4 out4_c out5 in5_c out5_c in5 in6 in6_c out6 out6_c ck5_c ck4_c res_c ck6_c ck6 ck5 ck4 res in1_c vss
*.PININFO in1:I in2:I in3:I vhi:B vlo:B in4:I in5:I in6:I out1:O out2:O out3:O out4:O out5:O out6:O res:I ck4:I ck5:I ck6:I vref:I
*+ ck3:I ck2:I ck1:I in1_c:O in2_c:O in3_c:O in4_c:O in5_c:O in6_c:O res_c:O ck4_c:O ck5_c:O ck6_c:O out1_c:I out2_c:I out3_c:I out4_c:I
*+ out5_c:I out6_c:I vref_c:O ck3_c:O ck2_c:O ck1_c:O vldo:B avdd:B vss:B iovdd:B vdd:B
xp1 vss avdd vss avdd in1 in1_c sg13g2_IOPadAnalog
xp26 vss vdd vss iovdd ck1_c ck1 sg13g2_IOPadIn
xp24 vss vdd vss iovdd out1_c out1 sg13g2_IOPadOut16mA
xp32 vss avdd vss avdd sg13g2_IOPadVdd
xp9 vss avdd vss avdd sg13g2_IOPadVss
xp2 vss avdd vss avdd in2 in2_c sg13g2_IOPadAnalog
xp3 vss avdd vss avdd in3 in3_c sg13g2_IOPadAnalog
xp4 vss avdd vss avdd vhi net1 sg13g2_IOPadAnalog
xp5 vss avdd vss avdd vlo net2 sg13g2_IOPadAnalog
xp6 vss avdd vss avdd in4 in4_c sg13g2_IOPadAnalog
xp7 vss avdd vss avdd in5 in5_c sg13g2_IOPadAnalog
xp8 vss avdd vss avdd in6 in6_c sg13g2_IOPadAnalog
xp23 vss vdd vss iovdd out2_c out2 sg13g2_IOPadOut16mA
xp22 vss vdd vss iovdd out3_c out3 sg13g2_IOPadOut16mA
xp21 vss vdd vss iovdd sg13g2_IOPadIOVdd
xp20 vss vdd vss iovdd sg13g2_IOPadIOVss
xp19 vss vdd vss iovdd out4_c out4 sg13g2_IOPadOut16mA
xp18 vss vdd vss iovdd out5_c out5 sg13g2_IOPadOut16mA
xp17 vss vdd vss iovdd out6_c out6 sg13g2_IOPadOut16mA
xp25 vss vdd vss iovdd sg13g2_IOPadVdd
xp16 vss vdd vss iovdd sg13g2_IOPadVss
xp27 vss vdd vss iovdd ck2_c ck2 sg13g2_IOPadIn
xp28 vss vdd vss iovdd ck3_c ck3 sg13g2_IOPadIn
xp29 vss vdd vss iovdd sg13g2_IOPadIOVdd
xp30 vss avdd vss avdd vldo net3 sg13g2_IOPadAnalog
xp31 vss avdd vss avdd vref vref_c sg13g2_IOPadAnalog
xp15 vss vdd vss iovdd ck6_c ck6 sg13g2_IOPadIn
xp14 vss vdd vss iovdd ck5_c ck5 sg13g2_IOPadIn
xp13 vss vdd vss iovdd ck4_c ck4 sg13g2_IOPadIn
xp12 vss vdd vss iovdd sg13g2_IOPadIOVss
xp11 vss vdd vss iovdd res_c res sg13g2_IOPadIn
xp10 vss avdd vss avdd sg13g2_IOPadVss
* noconn #net1
* noconn #net2
* noconn #net3
.ends

.GLOBAL VSS
.GLOBAL VDD
.end
** sch_path: /foss/designs/week12/IDSM2_t1.sch

.subckt IDSM2_t1 vhi vlo vdda vssa vin dout res clkin
*.PININFO clkin:I res:I vin:I vssa:I vdda:I vlo:I vhi:I dd:O
x1 vdda p2 net1 net2 vmid2 dout vssa p1 res vout2 comp_t1
x2 p1e clkin p1 p2 p2e clk_generator_t1
x3 res p1e p1 p2 vhi vdda vin vout1 vssa net2 net3 vlo stage_t1
x4 res p2e p2 p1 vhi vdda vout1 vout2 vssa net1 vmid2 vlo stage_t1
.ends

* expanding   symbol:  /foss/designs/week12/comp_t1.sym # of pins=9
** sym_path: /foss/designs/week12/comp_t1.sym
** sch_path: /foss/designs/week12/comp_t1.sch
.subckt comp_t1 vdda pc d dd vinp dout vssa ps res vinm
*.PININFO pc:I vinp:I ps:I vinm:I vdda:B vssa:B d:O dd:O res:I
M4 vinm_samp ps vinm vssa sg13_lv_nmos L=0.13u W=2u ng=1 m=1
M5 vinm_samp psb vinm vdda sg13_lv_pmos L=0.13u W=6u ng=3 m=1
x3 ps VDD VSS psb sg13g2_inv_1
C1 vinm_samp vssa cap_cmim W=5.77e-6 L=5.77e-6 MF=1
M1 out1m pc vdda vdda sg13_lv_pmos L=0.13u W=4u ng=1 m=1
M2 out1m out1p vdda vdda sg13_lv_pmos L=0.13u W=4u ng=1 m=1
M3 out1p out1m vdda vdda sg13_lv_pmos L=0.13u W=4u ng=1 m=1
M6 out1p pc vdda vdda sg13_lv_pmos L=0.13u W=4u ng=1 m=1
M7 out1m out1p d2p vssa sg13_lv_nmos L=0.13u W=2u ng=1 m=1
M8 d2p pc d1p vssa sg13_lv_nmos L=0.13u W=2u ng=1 m=1
M9 d1p vinp vssa vssa sg13_lv_nmos L=1u W=2u ng=1 m=1
M10 out1p out1m d2m vssa sg13_lv_nmos L=0.13u W=2u ng=1 m=1
M11 d2m pc d1m vssa sg13_lv_nmos L=0.13u W=2u ng=1 m=1
M12 d1m vinm_samp vssa vssa sg13_lv_nmos L=1u W=2u ng=1 m=1
M13 net1 out1p VDD VDD sg13_lv_pmos L=0.13u W=4u ng=1 m=1
M14 net1 net2 VDD VDD sg13_lv_pmos L=0.13u W=4u ng=1 m=1
M15 net2 net1 VDD VDD sg13_lv_pmos L=0.13u W=4u ng=1 m=1
M16 net2 out1m VDD VDD sg13_lv_pmos L=0.13u W=4u ng=1 m=1
M17 net1 net2 net3 VSS sg13_lv_nmos L=0.13u W=2u ng=1 m=1
M18 net2 net1 net4 VSS sg13_lv_nmos L=0.13u W=2u ng=1 m=1
M19 net3 out1p VSS VSS sg13_lv_nmos L=0.13u W=2u ng=1 m=1
M20 net4 out1m VSS VSS sg13_lv_nmos L=0.13u W=2u ng=1 m=1
x1 net2 VDD VSS d sg13g2_buf_2
x2 ps net2 dd net7 net6 VDD VSS sg13g2_dfrbp_2
x4 res VDD VSS net6 sg13g2_inv_1
x5 dd VDD VSS dout sg13g2_inv_2
.ends


* expanding   symbol:  /foss/designs/week12/clk_generator_t1.sym # of pins=5
** sym_path: /foss/designs/week12/clk_generator_t1.sym
** sch_path: /foss/designs/week12/clk_generator_t1.sch
.subckt clk_generator_t1 p1e clkin p1 p2 p2e
*.PININFO clkin:I p2e:O p2:O p1:O p1e:O
x1 clkin VDD VSS clkinb sg13g2_inv_2
x2 clkinbb b2 VDD VSS net11 sg13g2_nand2_2
x3 clkinb VDD VSS clkinbb sg13g2_inv_2
x4 net11 VDD VSS net2 sg13g2_inv_4
x8 b1 clkinb VDD VSS net12 sg13g2_nand2_2
x9 net12 VDD VSS net1 sg13g2_inv_4
x15 net2 VDD VSS net4 sg13g2_inv_4
x16 net1 VDD VSS net3 sg13g2_inv_4
x17 net4 VDD VSS net6 sg13g2_inv_4
x18 net3 VDD VSS net5 sg13g2_inv_4
x19 net6 VDD VSS a1 sg13g2_inv_4
x20 net5 VDD VSS a2 sg13g2_inv_4
x21 a1 VDD VSS p1e sg13g2_inv_4
x22 a2 VDD VSS p2e sg13g2_inv_4
x23 p1e VDD VSS b1 sg13g2_inv_4
x24 p2e VDD VSS b2 sg13g2_inv_4
x25 a1 b1 VDD VSS net7 sg13g2_nand2_2
x26 a2 b2 VDD VSS net8 sg13g2_nand2_2
x5 net7 VDD VSS net9 sg13g2_inv_4
x6 net8 VDD VSS net10 sg13g2_inv_4
x7 net9 VDD VSS p1 sg13g2_inv_8
x10 net10 VDD VSS p2 sg13g2_inv_8
.ends


* expanding   symbol:  /foss/designs/week12/stage_t1.sym # of pins=12
** sym_path: /foss/designs/week12/stage_t1.sym
** sch_path: /foss/designs/week12/stage_t1.sch
.subckt stage_t1 res pse ps pr vhi vdda vin vout vssa d vmid vlo
*.PININFO res:I pse:I ps:I pr:I vhi:B vin:I d:I vlo:B vdda:B vssa:B vout:O vmid:O
x1 ps VDD VSS psb sg13g2_inv_1
x2 d pr VDD VSS gp sg13g2_nand2b_1
M2 vout res vx4 vssa sg13_lv_nmos L=0.13u W=2u ng=1 m=1
M3 vx1 gp vhi vdda sg13_lv_pmos L=0.13u W=1.5u ng=1 m=1
M4 vx1 ps vin vssa sg13_lv_nmos L=0.13u W=2u ng=1 m=1
M5 vx1 psb vin vdda sg13_lv_pmos L=0.13u W=6u ng=3 m=1
C2 vx2 vx1 cap_cmim W=5.77e-6 L=5.77e-6 MF=1
x4 pr d VDD VSS gn sg13g2_and2_1
M6 vx1 gn vlo vssa sg13_lv_nmos L=0.13u W=0.5u ng=1 m=1
C3 vx3 vx2 cap_cmim W=8.16e-6 L=8.16e-6 MF=1
M7 vx4 pr vx2 vssa sg13_lv_nmos L=0.13u W=2u ng=1 m=1
M8 vx4 ps vx3 vssa sg13_lv_nmos L=0.13u W=2u ng=1 m=1
C4 vx4 vout cap_cmim W=8.16e-6 L=8.16e-6 MF=1
M9 vx2 pse vmid vssa sg13_lv_nmos L=0.13u W=2u ng=1 m=1
M10 vout vx3 vdda vdda sg13_lv_pmos L=1.5u W=10u ng=4 m=1
M11 vout vx3 vssa vssa sg13_lv_nmos L=1.5u W=2.5u ng=1 m=1
M12 vmid vmid vdda vdda sg13_lv_pmos L=1.5u W=10u ng=4 m=1
M13 vmid vmid vssa vssa sg13_lv_nmos L=1.5u W=2.5u ng=1 m=1
.ends
** sch_path: /foss/designs/Jie_Design/Team_2.sch
.subckt Team_2 vlo vhi vdda vssa iovdd vref vin dout res clkin
*.PININFO clkin:I res:I dout:O vlo:I vssa:I vhi:I vin:I iovdd:I vref:I vdda:B
M2 net3 net3 vdda vdda sg13_lv_pmos L=1.5u W=10u ng=4 m=1
M5 net3 net3 vssa vssa sg13_lv_nmos L=1.5u W=2.5u ng=1 m=1
x5 net3 res p1e p1 p2 vhi vdda vin vssa net2 vlo vout1 Stage_T2
x2 vdda p2 net1 net2 dout net3 res vssa p1 vout2 comparator_latch_T2
x3 p1e clkin p1 p2 p2e ClockGen_T2
x1 net3 res p2e p2 p1 vhi vdda vout1 vssa net1 vlo vout2 Stage_T2
x4 iovdd vref vdda vssa LDO_TOP_T2
.ends

* expanding   symbol:  /foss/designs/Jie_Design/Stage_T2.sym # of pins=12
** sym_path: /foss/designs/Jie_Design/Stage_T2.sym
** sch_path: /foss/designs/Jie_Design/Stage_T2.sch
.subckt Stage_T2 vmid res pse ps pr vhi vdda vin vssa d vlo vout
*.PININFO vin:I ps:I pse:I vout:O vmid:B res:I pr:I vdda:B vssa:B vhi:B d:I vlo:B
M3 vout vx3 vdda vdda sg13_lv_pmos L=1.5u W=10u ng=4 m=1
M4 vout vx3 vssa vssa sg13_lv_nmos L=1.5u W=2.5u ng=1 m=1
M1 vx4 pr vx2 vssa sg13_lv_nmos L=0.13u W=2u ng=1 m=1
M6 vx4 ps vx3 vssa sg13_lv_nmos L=0.13u W=2u ng=1 m=1
M7 vx2 pse vmid vssa sg13_lv_nmos L=0.13u W=2u ng=1 m=1
M8 vout res vx4 vssa sg13_lv_nmos L=0.13u W=2u ng=1 m=1
M9 vx1 gn vlo vssa sg13_lv_nmos L=.13u W=0.5u ng=1 m=1
M10 vx1 ps vin vssa sg13_lv_nmos L=0.13u W=2u ng=3 m=1
M11 vx1 psb vin vdda sg13_lv_pmos L=0.13u W=6u ng=1 m=1
x3 ps VDD VSS psb sg13g2_inv_1
M2 vx1 gp vhi vdda sg13_lv_pmos L=0.13u W=1.5u ng=1 m=1
x1 d pr VDD VSS gp sg13g2_nand2b_1
x2 pr d VDD VSS gn sg13g2_and2_1
C1 vx2 vx1 cap_cmim W=5.77e-6 L=5.77e-6 MF=1
C2 vx4 vout cap_cmim W=8.16e-6 L=8.16e-6 MF=1
C3 vx3 vx2 cap_cmim W=8.16e-6 L=8.16e-6 MF=1
.ends


* expanding   symbol:  /foss/designs/Jie_Design/comparator_latch_T2.sym # of pins=10
** sym_path: /foss/designs/Jie_Design/comparator_latch_T2.sym
** sch_path: /foss/designs/Jie_Design/comparator_latch_T2.sch
.subckt comparator_latch_T2 vdda pc d dd dout vinp res vssa ps vinm
*.PININFO vdda:B vssa:B pc:I vinp:I vinm:I ps:I dd:O d:O res:I dout:O
M1 d2p pc d1p vssa sg13_lv_nmos L=0.13u W=2u ng=1 m=1
M3 out1m pc vdda vdda sg13_lv_pmos L=0.13u W=4u ng=1 m=1
M4 out1m out1p vdda vdda sg13_lv_pmos L=0.13u W=4u ng=1 m=1
M5 out1m out1p d2p vssa sg13_lv_nmos L=0.13u W=2.0u ng=1 m=1
M6 d1p vinp vssa vssa sg13_lv_nmos L=1u W=2.0u ng=1 m=1
M2 out1p out1m vdda vdda sg13_lv_pmos L=0.13u W=4.0u ng=1 m=1
M7 out1p pc vdda vdda sg13_lv_pmos L=0.13u W=4.0u ng=1 m=1
M8 d2m pc d1m vssa sg13_lv_nmos L=0.13u W=2u ng=1 m=1
M9 out1p out1m d2m vssa sg13_lv_nmos L=0.13u W=2u ng=1 m=1
M10 d1m vinm_samp vssa vssa sg13_lv_nmos L=1u W=2.0u ng=1 m=1
M11 d2p2 out1p VSS VSS sg13_lv_nmos L=0.13u W=2u ng=1 m=1
M12 net1 out1p VDD VDD sg13_lv_pmos L=0.13u W=4u ng=1 m=1
M13 net1 net2 VDD VDD sg13_lv_pmos L=0.13u W=4u ng=1 m=1
M14 net1 net2 d2p2 VSS sg13_lv_nmos L=0.13u W=2.0u ng=1 m=1
M16 net2 net1 VDD VDD sg13_lv_pmos L=0.13u W=4.0u ng=1 m=1
M17 net2 out1m VDD VDD sg13_lv_pmos L=0.13u W=4.0u ng=1 m=1
M18 d2m2 out1m VSS VSS sg13_lv_nmos L=0.13u W=2u ng=1 m=1
M19 net2 net1 d2m2 VSS sg13_lv_nmos L=0.13u W=2u ng=1 m=1
M15 vinm_samp ps vinm vssa sg13_lv_nmos L=0.13u W=2.0u ng=1 m=1
M20 vinm_samp net3 vinm vdda sg13_lv_pmos L=0.13u W=6u ng=1 m=1
x1 ps VDD VSS net3 sg13g2_inv_1
x2 net2 VDD VSS d sg13g2_buf_2
x3 ps net2 dd net5 net4 VDD VSS sg13g2_dfrbp_2
x4 res VDD VSS net4 sg13g2_inv_1
C1 vinm_samp vssa cap_cmim W=5.77e-6 L=5.77e-6 MF=1
x5 dd VDD VSS dout sg13g2_inv_2
* noconn #net5
.ends


* expanding   symbol:  /foss/designs/Jie_Design/ClockGen_T2.sym # of pins=5
** sym_path: /foss/designs/Jie_Design/ClockGen_T2.sym
** sch_path: /foss/designs/Jie_Design/ClockGen_T2.sch
.subckt ClockGen_T2 p1e clkIn p1 p2 p2e
*.PININFO clkIn:I p1:O p1e:O p2:O p2e:O
x3 net1 net3 VDD VSS net13 sg13g2_nand2_2
x4 net2 net4 VDD VSS net5 sg13g2_nand2_2
x17 net14 net3 VDD VSS net15 sg13g2_nand2_2
x18 net12 net4 VDD VSS net17 sg13g2_nand2_2
x6 net10 VDD VSS net11 sg13g2_inv_4
x7 net11 VDD VSS net12 sg13g2_inv_4
x8 net12 VDD VSS p1e sg13g2_inv_4
x11 net7 VDD VSS net8 sg13g2_inv_4
x12 net8 VDD VSS net14 sg13g2_inv_4
x13 net14 VDD VSS p2e sg13g2_inv_4
x14 p2e VDD VSS net3 sg13g2_inv_4
x15 p1e VDD VSS net4 sg13g2_inv_4
x16 net17 VDD VSS net18 sg13g2_inv_4
x19 net15 VDD VSS net16 sg13g2_inv_4
x20 net18 VDD VSS p1 sg13g2_inv_8
x21 net16 VDD VSS p2 sg13g2_inv_8
x1 net2 VDD VSS net1 sg13g2_inv_2
x2 clkIn VDD VSS net2 sg13g2_inv_2
x5 net5 VDD VSS net6 sg13g2_inv_4
x9 net6 VDD VSS net7 sg13g2_inv_4
x10 net13 VDD VSS net9 sg13g2_inv_4
x23 net9 VDD VSS net10 sg13g2_inv_4
.ends


* expanding   symbol:  /foss/designs/Test_Cases/LDO_TOP_T2.sym # of pins=4
** sym_path: /foss/designs/Test_Cases/LDO_TOP_T2.sym
** sch_path: /foss/designs/Test_Cases/LDO_TOP_T2.sch
.subckt LDO_TOP_T2 VDD_IO Vref vdda vssa
*.PININFO VDD_IO:I vssa:I Vref:I vdda:B
M14 Verr net1 VDD_IO VDD_IO sg13_hv_pmos L=0.9u W=36u ng=1 m=1
M16 net1 net1 VDD_IO VDD_IO sg13_hv_pmos L=0.9u W=36u ng=1 m=1
M17 net1 vdda net2 vssa sg13_hv_nmos L=0.9u W=136.5u ng=1 m=1
M18 Verr Vref net2 vssa sg13_hv_nmos L=0.9u W=136.5u ng=1 m=1
M19 net2 vbn vssa vssa sg13_hv_nmos L=0.9u W=33u ng=1 m=1
M6 vstart vstart VDD_IO VDD_IO sg13_hv_pmos L=5u W=1.0u ng=1 m=1
M1 vbp vstart vssa vssa sg13_hv_nmos L=0.45u W=1.0u ng=1 m=1
M9 vstart vbn vssa vssa sg13_hv_nmos L=0.9u W=33u ng=1 m=1
M4 vbp vbn net3 vssa sg13_hv_nmos L=0.9u W=178u ng=1 m=1
M13 vbn vbn vssa vssa sg13_hv_nmos L=0.9u W=33u ng=1 m=1
M5 vbp vbp VDD_IO VDD_IO sg13_hv_pmos L=0.9u W=54u ng=1 m=1
M20 vbn vbp VDD_IO VDD_IO sg13_hv_pmos L=0.9u W=54u ng=1 m=1
R4 vssa net3 rhigh w=0.5e-6 l=0.96e-6 m=2 b=0
C1 vssa vdda cap_cmim W=70e-6 L=75.0e-6 MF=6
M10 vdda Verr VDD_IO VDD_IO sg13_hv_pmos L=0.45u W=1.414m ng=1 m=1
C2 net4 vdda cap_cmim W=60.0e-6 L=60.0e-6 MF=1
R1 Verr net4 rhigh w=0.5e-6 l=4*0.96e-6 m=1 b=0
.ends

.GLOBAL VDD
.GLOBAL VSS
.end
** sch_path: /foss/designs/Week 13/Team3.sch
.subckt Team3 vhi vlo vdda vssa vin dout res clkin
*.PININFO vhi:I dout:O vlo:I vdda:I vssa:I vin:I clkin:I res:I
x2 res p1 p1d p2d vhi vdda vout1 vin vssa net3 net2 vlo stage_T3
x3 res p2 p2d p1d vhi vdda vout2 vout1 vssa vmid2 net1 vlo stage_T3
x1 p1 clkin p1d p2d p2 clock_T3
x4 vdda p2d net1 vmid2 net2 dout vssa res p1d vout2 comp_latch_T3
.ends

* expanding   symbol:  /foss/designs/Week 13/stage_T3.sym # of pins=12
** sym_path: /foss/designs/Week 13/stage_T3.sym
** sch_path: /foss/designs/Week 13/stage_T3.sch
.subckt stage_T3 res pse ps pr vhi vdda vo vin vssa vmid d vlo
*.PININFO res:I pse:I ps:I pr:I vin:I vdda:B vo:O vssa:B vhi:B d:I vlo:B vmid:O
mn1 vo net4 vssa vssa sg13_lv_nmos L=1.5u W=2.5u ng=1 m=1
mp1 vo net4 vdda vdda sg13_lv_pmos L=1.5u W=10u ng=4 m=1
mn2 vo res net3 vssa sg13_lv_nmos L=0.13u W=2u ng=1 m=1
mn3 net3 ps net4 vssa sg13_lv_nmos L=0.13u W=2u ng=1 m=1
mn4 net3 pr net2 vssa sg13_lv_nmos L=0.13u W=2u ng=1 m=1
mn5 net2 pse vmid vssa sg13_lv_nmos L=0.13u W=2u ng=1 m=1
mp2 net1 psb vin vdda sg13_lv_pmos L=0.13u W=6u ng=3 m=1
mn6 net1 gn vlo vssa sg13_lv_nmos L=0.13u W=0.5u ng=1 m=1
mn7 net1 ps vin vssa sg13_lv_nmos L=0.13u W=2u ng=1 m=1
x1 ps VDD VSS psb sg13g2_inv_1
mp3 net1 net5 vhi vdda sg13_lv_pmos L=0.13u W=1.5u ng=1 m=1
x3 pr d VDD VSS gn sg13g2_and2_1
mn8 vmid vmid vssa vssa sg13_lv_nmos L=1.5u W=2.5u ng=1 m=1
mp4 vmid vmid vdda vdda sg13_lv_pmos L=1.5u W=10u ng=4 m=1
C4 net2 net1 cap_cmim W=5.77e-6 L=5.77e-6 MF=1
C1 net4 net2 cap_cmim W=8.16e-6 L=8.16e-6 MF=1
C2 net3 vo cap_cmim W=8.16e-6 L=8.16e-6 MF=1
x2 d pr VDD VSS net5 sg13g2_nand2b_1
.ends


* expanding   symbol:  /foss/designs/Week 13/clock_T3.sym # of pins=5
** sym_path: /foss/designs/Week 13/clock_T3.sym
** sch_path: /foss/designs/Week 13/clock_T3.sch
.subckt clock_T3 p1e clkin p1 p2 p2e
*.PININFO clkin:I p1e:O p2e:O p1:O p2:O
x7 clkin VDD VSS net1 sg13g2_inv_2
x10 net1 VDD VSS net2 sg13g2_inv_2
x11 net2 net14 VDD VSS net3 sg13g2_nand2_2
x12 net3 VDD VSS net4 sg13g2_inv_4
x13 net4 VDD VSS net5 sg13g2_inv_4
x16 net5 VDD VSS net6 sg13g2_inv_4
x17 net6 VDD VSS net7 sg13g2_inv_4
x18 net9 VDD VSS net10 sg13g2_inv_4
x19 net10 VDD VSS net11 sg13g2_inv_4
x20 net11 VDD VSS net12 sg13g2_inv_4
x21 net12 VDD VSS net13 sg13g2_inv_4
x22 net1 net16 VDD VSS net9 sg13g2_nand2_2
x23 net7 VDD VSS p1e sg13g2_inv_4
x24 p1e VDD VSS net16 sg13g2_inv_4
x25 net13 VDD VSS p2e sg13g2_inv_4
x26 p2e VDD VSS net14 sg13g2_inv_4
x27 net7 net16 VDD VSS net17 sg13g2_nand2_2
x28 net13 net14 VDD VSS net18 sg13g2_nand2_2
x29 net17 VDD VSS net8 sg13g2_inv_4
x30 net18 VDD VSS net15 sg13g2_inv_4
x31 net8 VDD VSS p1 sg13g2_inv_8
x32 net15 VDD VSS p2 sg13g2_inv_8
.ends


* expanding   symbol:  /foss/designs/Week 13/comp_latch_T3.sym # of pins=10
** sym_path: /foss/designs/Week 13/comp_latch_T3.sym
** sch_path: /foss/designs/Week 13/comp_latch_T3.sch
.subckt comp_latch_T3 vdda pc d vinp dd dout vssa res ps vinm
*.PININFO pc:I vssa:B vdda:B vinp:I vinm:I d:O res:I dd:O ps:I dout:O
M1 out1m out1p d2p vssa sg13_lv_nmos L=0.13u W=2u ng=1 m=1
M2 out1m out1p vdda vdda sg13_lv_pmos L=0.13u W=4u ng=1 m=1
M3 out1m pc vdda vdda sg13_lv_pmos L=0.13u W=4u ng=1 m=1
M4 d2p pc d1p vssa sg13_lv_nmos L=0.13u W=2u ng=1 m=1
M5 d1p vinp vssa vssa sg13_lv_nmos L=1u W=2u ng=1 m=1
M6 d2m pc d1m vssa sg13_lv_nmos L=0.13u W=2u ng=1 m=1
M7 d1m vinm_samp vssa vssa sg13_lv_nmos L=1u W=2u ng=1 m=1
M8 out1p out1m d2m vssa sg13_lv_nmos L=0.13u W=2u ng=1 m=1
M9 out1p pc vdda vdda sg13_lv_pmos L=0.13u W=4u ng=1 m=1
M10 out1p out1m vdda vdda sg13_lv_pmos L=0.13u W=4u ng=1 m=1
M11 net2 out1p VDD VDD sg13_lv_pmos L=0.13u W=4u ng=1 m=1
M12 net2 net3 VDD VDD sg13_lv_pmos L=0.13u W=4u ng=1 m=1
M13 net3 net2 VDD VDD sg13_lv_pmos L=0.13u W=4u ng=1 m=1
M14 net3 out1m VDD VDD sg13_lv_pmos L=0.13u W=4u ng=1 m=1
M15 net2 net3 net1 VSS sg13_lv_nmos L=0.13u W=2u ng=1 m=1
M16 net3 net2 net4 VSS sg13_lv_nmos L=0.13u W=2u ng=1 m=1
M17 net1 out1p VSS VSS sg13_lv_nmos L=0.13u W=2u ng=1 m=1
M18 net4 out1m VSS VSS sg13_lv_nmos L=0.13u W=2u ng=1 m=1
x1 net3 VDD VSS d sg13g2_buf_2
x2 ps net3 dd net7 net5 VDD VSS sg13g2_dfrbp_2
x3 res VDD VSS net5 sg13g2_inv_1
M19 vinm_samp ps vinm vssa sg13_lv_nmos L=0.13u W=2u ng=1 m=1
M20 vinm_samp net6 vinm vdda sg13_lv_pmos L=0.13u W=6u ng=3 m=1
x4 ps VDD VSS net6 sg13g2_inv_1
x5 dd VDD VSS dout sg13g2_inv_2
C1 vinm_samp vssa cap_cmim W=5.77e-6 L=5.77e-6 MF=1
.ends
** sch_path: /foss/designs/FinalProject/IDSM2_T4.sch
.subckt IDSM2_T4 vhi vlo vdda vin dout res clkin
*.PININFO vhi:I vlo:I vdda:I vssa:I vin:I res:I clkin:I dout:O
x1 vdda p2 net1 net2 dout vmid2 res VSS p1 vout2 comp_t4
x2 res vhi p1e p1 vdda p2 vin vout1 VSS net2 net3 vlo stage_t4
x3 res vhi p2e p2 vdda p1 vout1 vout2 VSS net1 vmid2 vlo stage_t4
x4 p1e p1 clkin p2 p2e clkgen_t4
.ends

* expanding   symbol:  /foss/designs/FinalProject/comp_t4.sym # of pins=10
** sym_path: /foss/designs/FinalProject/comp_t4.sym
** sch_path: /foss/designs/FinalProject/comp_t4.sch
.subckt comp_t4 vdda pc d dd dout vinp res vssa ps vinm
*.PININFO vdda:B vssa:B pc:I vinp:I res:I ps:I vinm:I d:O dd:O dout:O
M1 out1m out1p vdda vdda sg13_lv_pmos L=0.13u W=4u ng=1 m=1
M2 out1m out1p d2p vssa sg13_lv_nmos L=0.13u W=2u ng=1 m=1
M3 out1m pc vdda vdda sg13_lv_pmos L=0.13u W=4u ng=1 m=1
M4 d1p vinp vssa vssa sg13_lv_nmos L=1u W=2u ng=1 m=1
M5 d2p pc d1p vssa sg13_lv_nmos L=0.13u W=2u ng=1 m=1
M6 out1p out1m vdda vdda sg13_lv_pmos L=0.13u W=4u ng=1 m=1
M7 out1p out1m d2m vssa sg13_lv_nmos L=0.13u W=2u ng=1 m=1
M8 out1p pc vdda vdda sg13_lv_pmos L=0.13u W=4u ng=1 m=1
M9 d1m vinm_samp vssa vssa sg13_lv_nmos L=1u W=2u ng=1 m=1
M10 d2m pc d1m vssa sg13_lv_nmos L=0.13u W=2u ng=1 m=1
M11 net3 net4 VDD VDD sg13_lv_pmos L=0.13u W=4u ng=1 m=1
M12 net3 net4 net1 VSS sg13_lv_nmos L=0.13u W=2u ng=1 m=1
M13 net3 out1p VDD VDD sg13_lv_pmos L=0.13u W=4u ng=1 m=1
M15 net1 out1p VSS VSS sg13_lv_nmos L=0.13u W=2u ng=1 m=1
M16 net4 net3 VDD VDD sg13_lv_pmos L=0.13u W=4u ng=1 m=1
M17 net4 net3 net2 VSS sg13_lv_nmos L=0.13u W=2u ng=1 m=1
M18 net4 out1m VDD VDD sg13_lv_pmos L=0.13u W=4u ng=1 m=1
M20 net2 out1m VSS VSS sg13_lv_nmos L=0.13u W=2u ng=1 m=1
x2 net4 VDD VSS d sg13g2_buf_2
x3 res VDD VSS net5 sg13g2_inv_1
C1 vinm_samp vssa cap_cmim W=5.77e-6 L=5.77e-6 MF=1
M14 vinm_samp ps vinm vssa sg13_lv_nmos L=0.13u W=2u ng=1 m=1
M19 vinm_samp psb vinm vdda sg13_lv_pmos L=0.13u W=6u ng=3 m=1
x4 ps VDD VSS psb sg13g2_inv_1
x1 ps net4 dd net6 net5 VDD VSS sg13g2_dfrbp_1
x5 dd VDD VSS dout sg13g2_inv_2
.ends


* expanding   symbol:  /foss/designs/FinalProject/stage_t4.sym # of pins=12
** sym_path: /foss/designs/FinalProject/stage_t4.sym
** sch_path: /foss/designs/FinalProject/stage_t4.sch
.subckt stage_t4 res vhi p1e p1 vdda p2 vin vout vssa d vmid vlo
*.PININFO vin:I res:I vlo:B vdda:B vout:O p1e:I p1:I p2:I vssa:B d:I vmid:O vhi:B
M1 vout vx vssa vssa sg13_lv_nmos L=1.5u W=2.5u ng=1 m=1
M2 vout vx vdda vdda sg13_lv_pmos L=1.5u W=10.5u ng=4 m=1
M6 net2 p1 vin vssa sg13_lv_nmos L=0.13u W=2.0u ng=1 m=1
M5 net2 p1b vin vdda sg13_lv_pmos L=0.13u W=6.0u ng=3 m=1
M7 net2 net3 vlo vssa sg13_lv_nmos L=0.13u W=0.5u ng=1 m=1
M8 vy p1e vmid vssa sg13_lv_nmos L=0.13u W=2.0u ng=1 m=1
M9 net1 p2 vy vssa sg13_lv_nmos L=0.13u W=2.0u ng=1 m=1
M10 net1 p1 vx vssa sg13_lv_nmos L=0.13u W=2.0u ng=1 m=1
M11 vout res net1 vssa sg13_lv_nmos L=0.13u W=2.0u ng=1 m=1
x1 p1 VDD VSS p1b sg13g2_inv_1
x2 p2 d VDD VSS net3 sg13g2_and2_1
C1 vy net2 cap_cmim W=5.77e-6 L=5.77e-6 MF=1
C2 vx vy cap_cmim W=8.16e-6 L=8.16e-6 MF=1
C3 vout net1 cap_cmim W=8.16e-6 L=8.16e-6 MF=1
M12 net2 net4 vhi vdda sg13_lv_pmos L=0.13u W=1.5u ng=1 m=1
x3 d p2 VDD VSS net4 sg13g2_nand2b_1
M3 vmid vmid vssa vssa sg13_lv_nmos L=1.5u W=2.5u ng=1 m=1
M4 vmid vmid vdda vdda sg13_lv_pmos L=1.5u W=10.5u ng=4 m=1
.ends


* expanding   symbol:  /foss/designs/FinalProject/clkgen_t4.sym # of pins=5
** sym_path: /foss/designs/FinalProject/clkgen_t4.sym
** sch_path: /foss/designs/FinalProject/clkgen_t4.sch
.subckt clkgen_t4 p1e p1 clkin p2 p2e
*.PININFO p1e:O p1:O p2:O p2e:O clkin:I
x15 clkin VDD VSS net3 sg13g2_inv_2
x3 net3 VDD VSS net4 sg13g2_inv_2
x17 net3 net1 VDD VSS net12 sg13g2_nand2_2
x1 net4 net2 VDD VSS net11 sg13g2_nand2_2
x2 net7 net1 VDD VSS net8 sg13g2_nand2_2
x11 net5 net2 VDD VSS net9 sg13g2_nand2_2
x12 net8 VDD VSS net10 sg13g2_inv_4
x13 net9 VDD VSS net6 sg13g2_inv_4
x6 net5 VDD VSS p2e sg13g2_inv_4
x4 p2e VDD VSS net2 sg13g2_inv_4
x5 p1e VDD VSS net1 sg13g2_inv_4
x7 net7 VDD VSS p1e sg13g2_inv_4
x8 net18 VDD VSS net17 sg13g2_inv_4
x16 net11 VDD VSS net13 sg13g2_inv_4
x18 net13 VDD VSS net18 sg13g2_inv_4
x19 net17 VDD VSS net7 sg13g2_inv_4
x14 net15 VDD VSS net16 sg13g2_inv_4
x20 net12 VDD VSS net14 sg13g2_inv_4
x21 net14 VDD VSS net15 sg13g2_inv_4
x22 net16 VDD VSS net5 sg13g2_inv_4
x9 net10 VDD VSS p1 sg13g2_inv_8
x10 net6 VDD VSS p2 sg13g2_inv_8
.ends

** sch_path: /foss/designs/turn-in/Team5.sch
.subckt Team5 vhi vlo dd vdda VSS vin res clkin
*.PININFO vhi:I vlo:I vdda:I vssa:I vin:I res:I dd:O clkin:I
x2 vhi vlo vdda VSS vmid vin vout2 dd d res net1 net3 net4 net2 Team5_split1
x1 vdda VSS d vmid vout2 dd res net4 net3 net2 net1 clkin Team5_split2
.ends

* expanding   symbol:  /foss/designs/Team5_split1.sym # of pins=14
** sym_path: /foss/designs/Team5_split1.sym
** sch_path: /foss/designs/Team5_split1.sch
.subckt Team5_split1 vhi vlo vdda vssa vinp vin vinm dd d res p1e p1 p2 p2e
*.PININFO vhi:I vlo:I vdda:I vssa:I vin:I res:I p1:B p1e:B p2e:B p2:B vinp:B vinm:B d:B dd:B
x3 res p1e p1 p2 vhi vdda vout1 vin vssa dd vlo net1 integ_5_splitTop
x5 res p2e p2 p1 vhi vdda vinm vout1 vssa d vlo vinp integ_5_splitTop
.ends


* expanding   symbol:  /foss/designs/Team5_split2.sym # of pins=12
** sym_path: /foss/designs/Team5_split2.sym
** sch_path: /foss/designs/Team5_split2.sch
.subckt Team5_split2 vdda vssa d vinp vinm dd res p2 p1 p2e p1e clkin
*.PININFO vdda:I vssa:I res:I clkin:I vinp:B vinm:B p1e:B p1:B p2:B p2e:B d:B dd:B
x1 vdda p2 d dd vinp vssa res p1 vinm comp_5_splitTop
x4 p1e clkin p1 p2 p2e clock_5_splitTop
.ends


* expanding   symbol:  /foss/designs/layout/integ_5_splitTop.sym # of pins=12
** sym_path: /foss/designs/layout/integ_5_splitTop.sym
** sch_path: /foss/designs/layout/integ_5_splitTop.sch
.subckt integ_5_splitTop res pse ps pr vhi vdda vout vin vssa d vlo vmid
*.PININFO ps:B vhi:B vdda:B vlo:B vout:B vmid:B pse:B pr:B d:B vin:B res:B vssa:B
x1 ps vhi vin d vdda pr vssa vlo vout net1 net2 pse vmid integ_5_splitTop3
x2 res vout net1 vssa ps net2 integ_5_split5
.ends


* expanding   symbol:  /foss/designs/comp_5_splitTop.sym # of pins=9
** sym_path: /foss/designs/comp_5_splitTop.sym
** sch_path: /foss/designs/comp_5_splitTop.sch
.subckt comp_5_splitTop vdda pc d dd vinp vssa res ps vinm
*.PININFO pc:I vdda:B vssa:B vinp:I ps:I vinm:I res:I dd:O d:O
x2 vdda pc out1m vinp out1p vssa ps vinm comp_5_splitTop3
x1 out1m VDD VSS out1p res d dd ps comp_5_splitTop4
.ends


* expanding   symbol:  /foss/designs/clock_5_splitTop.sym # of pins=5
** sym_path: /foss/designs/clock_5_splitTop.sym
** sch_path: /foss/designs/clock_5_splitTop.sch
.subckt clock_5_splitTop p1e clkin p1 p2 p2e
*.PININFO clkin:I p1e:O p1:O p2:O p2e:O
x1 p1e clkin p1 net1 net2 clkinb clock_5_splitTop1
x2 net1 clkinb net2 p2 p2e clock_5_splitTop2
.ends


* expanding   symbol:  /foss/designs/integ_5_splitTop3.sym # of pins=13
** sym_path: /foss/designs/integ_5_splitTop3.sym
** sch_path: /foss/designs/integ_5_splitTop3.sch
.subckt integ_5_splitTop3 ps vhi vin d vdda pr vssa vlo vout vx4 vx3 pse vmid
*.PININFO pse:I pr:I vssa:B d:I vlo:B vin:I vhi:B vdda:B ps:B vmid:B vx3:B vx4:B vout:B
x1 ps vhi vin d net1 vdda pr vssa vlo integ_5_splitTop1
x2 vdda vout vx4 pr net1 vx3 pse vssa vmid integ_5_splitTop2
.ends


* expanding   symbol:  /foss/designs/integ_5_split5.sym # of pins=6
** sym_path: /foss/designs/integ_5_split5.sym
** sch_path: /foss/designs/integ_5_split5.sch
.subckt integ_5_split5 res vout vx4 vssa ps vx3
*.PININFO res:I vssa:B vout:O vx3:B ps:B vx4:B
M1 vout res vx4 vssa sg13_lv_nmos L=0.13u W=2u ng=1 m=1
C1 vx4 vout cap_cmim W=8.16e-6 L=8.16e-6 MF=1
M2 vx4 ps vx3 vssa sg13_lv_nmos L=0.13u W=2u ng=1 m=1
.ends


* expanding   symbol:  /foss/designs/comp_5_splitTop3.sym # of pins=8
** sym_path: /foss/designs/comp_5_splitTop3.sym
** sch_path: /foss/designs/comp_5_splitTop3.sch
.subckt comp_5_splitTop3 vdda pc out1m vinp out1p vssa ps vinm
*.PININFO pc:I vdda:B vssa:B vinp:I ps:I vinm:I out1p:B out1m:B
x5 vdda pc vinp out1m out1p vssa vinm_samp comp_5_splitTop1
x7 vdda vssa ps vinm_samp vinm comp_5_split3
.ends


* expanding   symbol:  /foss/designs/comp_5_splitTop4.sym # of pins=8
** sym_path: /foss/designs/comp_5_splitTop4.sym
** sch_path: /foss/designs/comp_5_splitTop4.sch
.subckt comp_5_splitTop4 out1m VDD VSS out1p res d dd ps
*.PININFO res:I dd:O d:O out1m:B out1p:B VDD:B VSS:B ps:B
x6 out1p VDD net1 out1m VSS comp_5_splitTop2
x1 net1 d dd ps res comp_5_split4
.ends


* expanding   symbol:  /foss/designs/clock_5_splitTop1.sym # of pins=6
** sym_path: /foss/designs/clock_5_splitTop1.sym
** sch_path: /foss/designs/clock_5_splitTop1.sch
.subckt clock_5_splitTop1 p1e clkin p1 nand_A2 nand_B1 nand_B2
*.PININFO clkin:I p1e:O p1:O nand_B2:B nand_B1:B nand_A2:B
x1 p1e net1 p1 nand_A2 clock_5_split1
x3 net1 clkin nand_B2 nand_B1 clock_5_split3
.ends


* expanding   symbol:  /foss/designs/clock_5_splitTop2.sym # of pins=5
** sym_path: /foss/designs/clock_5_splitTop2.sym
** sch_path: /foss/designs/clock_5_splitTop2.sch
.subckt clock_5_splitTop2 nand_A2 nand_B2 nand_B1 p2 p2e
*.PININFO p2:O p2e:O nand_B2:B nand_B1:B nand_A2:B
x2 nand_B1 net1 p2 p2e clock_5_split2
x4 net1 nand_A2 nand_B2 clock_5_split4
.ends


* expanding   symbol:  /foss/designs/layout/integ_5_splitTop1.sym # of pins=9
** sym_path: /foss/designs/layout/integ_5_splitTop1.sym
** sch_path: /foss/designs/layout/integ_5_splitTop1.sch
.subckt integ_5_splitTop1 ps vhi vin d vx1 vdda pr vssa vlo
*.PININFO d:B vin:B ps:B vhi:B vx1:B vdda:B pr:B vssa:B vlo:B
x1 ps net1 vhi d vdda pr vx1 integ_5_split1
x2 ps vin vx1 d vdda net1 pr vssa vlo integ_5_split2
.ends


* expanding   symbol:  /foss/designs/layout/integ_5_splitTop2.sym # of pins=9
** sym_path: /foss/designs/layout/integ_5_splitTop2.sym
** sch_path: /foss/designs/layout/integ_5_splitTop2.sch
.subckt integ_5_splitTop2 vdda vout vx4 pr vx1 vx3 pse vssa vmid
*.PININFO vdda:B vout:B vx4:B pr:B vx1:B vx3:B pse:B vssa:B vmid:B
x1 vdda vx3 vout vssa vmid integ_5_split3
x2 vx4 pr vx1 vx3 pse vssa vmid integ_5_split4
.ends


* expanding   symbol:  /foss/designs/comp_5_splitTop1.sym # of pins=7
** sym_path: /foss/designs/comp_5_splitTop1.sym
** sch_path: /foss/designs/comp_5_splitTop1.sch
.subckt comp_5_splitTop1 vdda pc vinp out1m out1p vssa vinm_samp
*.PININFO pc:I vdda:B vssa:B vinp:I out1m:B out1p:B vinm_samp:B
x1 vdda pc out1m out1p vinp vssa comp_5_split1
x2 vdda pc out1p out1m vinm_samp vssa comp_5_split1
.ends


* expanding   symbol:  /foss/designs/comp_5_split3.sym # of pins=5
** sym_path: /foss/designs/comp_5_split3.sym
** sch_path: /foss/designs/comp_5_split3.sch
.subckt comp_5_split3 vdda vssa ps vinm_samp vinm
*.PININFO vdda:B vssa:B ps:I vinm:I vinm_samp:B
M19 vinm_samp psb vinm vdda sg13_lv_pmos L=0.13u W=6u ng=1 m=1
M20 vinm_samp ps vinm vssa sg13_lv_nmos L=0.13u W=2u ng=1 m=1
x1 ps VDD VSS psb sg13g2_inv_1
C1 vinm_samp vssa cap_cmim W=5.77e-6 L=5.77e-6 MF=1
.ends


* expanding   symbol:  /foss/designs/comp_5_splitTop2.sym # of pins=5
** sym_path: /foss/designs/comp_5_splitTop2.sym
** sch_path: /foss/designs/comp_5_splitTop2.sch
.subckt comp_5_splitTop2 out1m VDD d_inv in VSS
*.PININFO VDD:B d_inv:B VSS:B out1m:B in:B
x1 VDD net1 d_inv in VSS comp_5_split2
x5 VDD d_inv net1 out1m VSS comp_5_split2
.ends


* expanding   symbol:  /foss/designs/comp_5_split4.sym # of pins=5
** sym_path: /foss/designs/comp_5_split4.sym
** sch_path: /foss/designs/comp_5_split4.sch
.subckt comp_5_split4 d_inv d dd ps res
*.PININFO res:I dd:O d:O d_inv:B ps:B
x2 ps d_inv dd net2 net1 VDD VSS sg13g2_dfrbp_2
x3 res VDD VSS net1 sg13g2_inv_1
x4 d_inv VDD VSS d sg13g2_buf_2
.ends


* expanding   symbol:  /foss/designs/clock_5_split1.sym # of pins=4
** sym_path: /foss/designs/clock_5_split1.sym
** sch_path: /foss/designs/clock_5_split1.sch
.subckt clock_5_split1 p1e inv_top p1 nand_A2
*.PININFO p1e:O p1:O inv_top:B nand_A2:B
x7 inv_top VDD VSS a1 sg13g2_inv_4