* Extracted by KLayout with SG13G2 LVS runset on : 05/05/2024 03:28

* cell UHEE628_S2024
* pin RES
* pin CK4
* pin CK5
* pin CK6
* pin IOVDD
* pin AVDD
* pin VDD
* pin IN6
* pin OUT6
* pin IN5
* pin OUT5
* pin IN4
* pin OUT4
* pin VLO
* pin VHI
* pin IN3
* pin OUT3
* pin IN2
* pin OUT2
* pin IN1
* pin OUT1
* pin VREF
* pin VLDO
* pin CK3
* pin CK2
* pin CK1
* pin VSS
.SUBCKT UHEE628_S2024 RES CK4 CK5 CK6 IOVDD AVDD VDD IN6 OUT6 IN5 OUT5 IN4 OUT4
+ VLO VHI IN3 OUT3 IN2 OUT2 IN1 OUT1 VREF VLDO CK3 CK2 CK1 VSS
* device instance $1 r0 *1 500.255,239.005 sg13_lv_nmos
M$1 \$181 \$186 VSS VSS sg13_lv_nmos W=2.75 L=0.13
* device instance $2 r0 *1 700.255,239.005 sg13_lv_nmos
M$2 \$182 \$187 VSS VSS sg13_lv_nmos W=2.75 L=0.13
* device instance $3 r0 *1 800.255,239.005 sg13_lv_nmos
M$3 \$183 \$188 VSS VSS sg13_lv_nmos W=2.75 L=0.13
* device instance $4 r0 *1 900.255,239.005 sg13_lv_nmos
M$4 \$184 \$189 VSS VSS sg13_lv_nmos W=2.75 L=0.13
* device instance $5 r0 *1 1060.995,297.48 sg13_lv_nmos
M$5 \$235 \$237 VSS VSS sg13_lv_nmos W=2.75 L=0.13
* device instance $6 r0 *1 1060.995,300.99 sg13_lv_nmos
M$6 \$263 \$237 VSS VSS sg13_lv_nmos W=2.75 L=0.13
* device instance $7 r0 *1 1060.995,397.48 sg13_lv_nmos
M$7 \$350 \$352 VSS VSS sg13_lv_nmos W=2.75 L=0.13
* device instance $8 r0 *1 1060.995,400.99 sg13_lv_nmos
M$8 \$378 \$352 VSS VSS sg13_lv_nmos W=2.75 L=0.13
* device instance $9 r0 *1 1060.995,497.48 sg13_lv_nmos
M$9 \$465 \$467 VSS VSS sg13_lv_nmos W=2.75 L=0.13
* device instance $10 r0 *1 1060.995,500.99 sg13_lv_nmos
M$10 \$493 \$467 VSS VSS sg13_lv_nmos W=2.75 L=0.13
* device instance $11 r0 *1 485.618,504.427 sg13_lv_nmos
M$11 \$517 \$527 \$533 VSS sg13_lv_nmos W=0.42 L=0.13
* device instance $12 r0 *1 486.008,504.427 sg13_lv_nmos
M$12 \$533 \$518 VSS VSS sg13_lv_nmos W=0.42 L=0.13
* device instance $13 r0 *1 486.568,504.427 sg13_lv_nmos
M$13 VSS \$504 \$532 VSS sg13_lv_nmos W=0.42 L=0.13
* device instance $14 r0 *1 486.923,504.427 sg13_lv_nmos
M$14 \$532 \$517 \$518 VSS sg13_lv_nmos W=0.42 L=0.13
* device instance $15 r0 *1 483.978,504.537 sg13_lv_nmos
M$15 VSS \$515 \$516 VSS sg13_lv_nmos W=0.64 L=0.13
* device instance $16 r0 *1 484.648,504.537 sg13_lv_nmos
M$16 \$516 \$510 \$517 VSS sg13_lv_nmos W=0.64 L=0.13
* device instance $17 r0 *1 482.098,504.652 sg13_lv_nmos
M$17 \$514 \$527 \$515 VSS sg13_lv_nmos W=0.42 L=0.13
* device instance $18 r0 *1 482.608,504.652 sg13_lv_nmos
M$18 \$515 \$510 \$531 VSS sg13_lv_nmos W=0.42 L=0.13
* device instance $19 r0 *1 482.998,504.652 sg13_lv_nmos
M$19 \$531 \$516 \$530 VSS sg13_lv_nmos W=0.42 L=0.13
* device instance $20 r0 *1 483.358,504.652 sg13_lv_nmos
M$20 VSS \$504 \$530 VSS sg13_lv_nmos W=0.42 L=0.13
* device instance $21 r0 *1 476.768,504.592 sg13_lv_nmos
M$21 VSS \$689 \$513 VSS sg13_lv_nmos W=0.74 L=0.13
* device instance $22 r0 *1 487.963,504.592 sg13_lv_nmos
M$22 VSS \$517 \$519 VSS sg13_lv_nmos W=0.74 L=0.13
* device instance $23 r0 *1 489.163,504.497 sg13_lv_nmos
M$23 \$520 \$517 VSS VSS sg13_lv_nmos W=0.55 L=0.12999999999999998
* device instance $24 r0 *1 489.703,504.592 sg13_lv_nmos
M$24 VSS \$520 \$521 VSS sg13_lv_nmos W=0.74 L=0.13
* device instance $25 r0 *1 491.898,504.592 sg13_lv_nmos
M$25 VSS \$521 \$467 VSS sg13_lv_nmos W=1.48 L=0.13
* device instance $27 r0 *1 494.693,504.591 sg13_lv_nmos
M$27 VSS \$181 \$504 VSS sg13_lv_nmos W=0.74 L=0.13
* device instance $28 r0 *1 496.608,504.591 sg13_lv_nmos
M$28 VSS \$534 \$522 VSS sg13_lv_nmos W=1.48 L=0.13
* device instance $30 r0 *1 497.628,504.641 sg13_lv_nmos
M$30 VSS \$601 \$534 VSS sg13_lv_nmos W=0.64 L=0.13
* device instance $31 r0 *1 478.818,504.452 sg13_lv_nmos
M$31 \$514 \$601 \$529 VSS sg13_lv_nmos W=0.42 L=0.13
* device instance $32 r0 *1 479.188,504.452 sg13_lv_nmos
M$32 \$529 \$504 VSS VSS sg13_lv_nmos W=0.42 L=0.13
* device instance $33 r0 *1 480.333,504.767 sg13_lv_nmos
M$33 VSS \$689 \$527 VSS sg13_lv_nmos W=0.74 L=0.13
* device instance $34 r0 *1 480.843,504.767 sg13_lv_nmos
M$34 VSS \$527 \$510 VSS sg13_lv_nmos W=0.74 L=0.13
* device instance $35 r0 *1 481.503,510.997 sg13_lv_nmos
M$35 VSS \$569 \$574 VSS sg13_lv_nmos W=2.0 L=1.0
* device instance $36 r0 *1 481.703,513.099 sg13_lv_nmos
M$36 \$574 \$631 \$580 VSS sg13_lv_nmos W=2.0 L=0.13
* device instance $37 r0 *1 483.503,509.467 sg13_lv_nmos
M$37 \$564 \$689 \$565 VSS sg13_lv_nmos W=2.0 L=0.13
* device instance $38 r0 *1 482.903,513.099 sg13_lv_nmos
M$38 \$580 \$582 \$581 VSS sg13_lv_nmos W=2.0 L=0.13
* device instance $39 r0 *1 484.103,513.099 sg13_lv_nmos
M$39 \$582 \$581 \$583 VSS sg13_lv_nmos W=2.0 L=0.13
* device instance $40 r0 *1 485.503,510.997 sg13_lv_nmos
M$40 VSS \$565 \$575 VSS sg13_lv_nmos W=2.0 L=1.0
* device instance $41 r0 *1 485.303,513.099 sg13_lv_nmos
M$41 \$583 \$631 \$575 VSS sg13_lv_nmos W=2.0 L=0.13
* device instance $42 r0 *1 488.561,513.099 sg13_lv_nmos
M$42 VSS \$582 \$584 VSS sg13_lv_nmos W=2.0 L=0.13
* device instance $43 r0 *1 489.761,513.099 sg13_lv_nmos
M$43 \$584 \$601 \$585 VSS sg13_lv_nmos W=2.0 L=0.13
* device instance $44 r0 *1 490.961,513.099 sg13_lv_nmos
M$44 \$601 \$585 \$586 VSS sg13_lv_nmos W=2.0 L=0.13
* device instance $45 r0 *1 492.161,513.099 sg13_lv_nmos
M$45 \$586 \$581 VSS VSS sg13_lv_nmos W=2.0 L=0.13
* device instance $46 r0 *1 438.155,518.846 sg13_lv_nmos
M$46 VSS \$622 \$623 VSS sg13_lv_nmos W=2.96 L=0.13
* device instance $50 r0 *1 441.035,518.846 sg13_lv_nmos
M$50 VSS \$623 \$624 VSS sg13_lv_nmos W=2.96 L=0.13
* device instance $54 r0 *1 443.915,518.846 sg13_lv_nmos
M$54 VSS \$624 \$625 VSS sg13_lv_nmos W=2.96 L=0.13
* device instance $58 r0 *1 446.795,518.846 sg13_lv_nmos
M$58 VSS \$625 \$626 VSS sg13_lv_nmos W=2.96 L=0.13
* device instance $62 r0 *1 449.675,518.846 sg13_lv_nmos
M$62 VSS \$626 \$627 VSS sg13_lv_nmos W=2.96 L=0.13
* device instance $66 r0 *1 452.555,518.846 sg13_lv_nmos
M$66 VSS \$627 \$628 VSS sg13_lv_nmos W=2.96 L=0.13
* device instance $70 r0 *1 458.315,518.846 sg13_lv_nmos
M$70 VSS \$629 \$630 VSS sg13_lv_nmos W=2.96 L=0.13
* device instance $74 r0 *1 461.135,518.846 sg13_lv_nmos
M$74 VSS \$630 \$631 VSS sg13_lv_nmos W=5.920000000000001 L=0.13
* device instance $82 r0 *1 431.455,521.281 sg13_lv_nmos
M$82 VSS \$182 \$633 VSS sg13_lv_nmos W=1.48 L=0.13
* device instance $84 r0 *1 433.375,521.281 sg13_lv_nmos
M$84 VSS \$633 \$679 VSS sg13_lv_nmos W=1.48 L=0.13
* device instance $86 r0 *1 435.35,521.256 sg13_lv_nmos
M$86 \$680 \$628 VSS VSS sg13_lv_nmos W=1.44 L=0.13
* device instance $88 r0 *1 436.38,521.256 sg13_lv_nmos
M$88 \$680 \$679 \$707 VSS sg13_lv_nmos W=1.44 L=0.13
* device instance $90 r0 *1 435.35,518.871 sg13_lv_nmos
M$90 \$657 \$686 VSS VSS sg13_lv_nmos W=1.44 L=0.13
* device instance $92 r0 *1 436.38,518.871 sg13_lv_nmos
M$92 \$657 \$633 \$622 VSS sg13_lv_nmos W=1.44 L=0.13
* device instance $94 r0 *1 438.155,521.281 sg13_lv_nmos
M$94 VSS \$707 \$681 VSS sg13_lv_nmos W=2.96 L=0.13
* device instance $98 r0 *1 441.035,521.281 sg13_lv_nmos
M$98 VSS \$681 \$682 VSS sg13_lv_nmos W=2.96 L=0.13
* device instance $102 r0 *1 443.915,521.281 sg13_lv_nmos
M$102 VSS \$682 \$683 VSS sg13_lv_nmos W=2.96 L=0.13
* device instance $106 r0 *1 446.795,521.281 sg13_lv_nmos
M$106 VSS \$683 \$684 VSS sg13_lv_nmos W=2.96 L=0.13
* device instance $110 r0 *1 449.675,521.281 sg13_lv_nmos
M$110 VSS \$684 \$685 VSS sg13_lv_nmos W=2.96 L=0.13
* device instance $114 r0 *1 452.555,521.281 sg13_lv_nmos
M$114 VSS \$685 \$686 VSS sg13_lv_nmos W=2.96 L=0.13
* device instance $118 r0 *1 455.51,518.871 sg13_lv_nmos
M$118 \$658 \$628 VSS VSS sg13_lv_nmos W=1.44 L=0.13
* device instance $120 r0 *1 456.54,518.871 sg13_lv_nmos
M$120 \$658 \$626 \$629 VSS sg13_lv_nmos W=1.44 L=0.13
* device instance $122 r0 *1 455.51,521.256 sg13_lv_nmos
M$122 \$687 \$686 VSS VSS sg13_lv_nmos W=1.44 L=0.13
* device instance $124 r0 *1 456.54,521.256 sg13_lv_nmos
M$124 \$687 \$684 \$692 VSS sg13_lv_nmos W=1.44 L=0.13
* device instance $126 r0 *1 458.315,521.281 sg13_lv_nmos
M$126 VSS \$692 \$688 VSS sg13_lv_nmos W=2.96 L=0.13
* device instance $130 r0 *1 461.135,521.281 sg13_lv_nmos
M$130 VSS \$688 \$689 VSS sg13_lv_nmos W=5.920000000000001 L=0.13
* device instance $138 r0 *1 431.5,535.261 sg13_lv_nmos
M$138 VSS \$689 \$731 VSS sg13_lv_nmos W=0.74 L=0.13
* device instance $139 r0 *1 432.935,535.356 sg13_lv_nmos
M$139 VSS \$521 \$732 VSS sg13_lv_nmos W=0.55 L=0.12999999999999998
* device instance $140 r0 *1 433.785,535.261 sg13_lv_nmos
M$140 VSS \$631 \$750 VSS sg13_lv_nmos W=0.74 L=0.13
* device instance $141 r0 *1 434.095,535.261 sg13_lv_nmos
M$141 \$750 \$732 \$733 VSS sg13_lv_nmos W=0.74 L=0.13
* device instance $142 r0 *1 434.07,553.206 sg13_lv_nmos
M$142 \$781 \$735 VLO VSS sg13_lv_nmos W=0.5 L=0.13
* device instance $143 r0 *1 435.785,535.421 sg13_lv_nmos
M$143 \$734 \$631 \$747 VSS sg13_lv_nmos W=0.64 L=0.13
* device instance $144 r0 *1 436.295,535.421 sg13_lv_nmos
M$144 VSS \$521 \$747 VSS sg13_lv_nmos W=0.64 L=0.13
* device instance $145 r0 *1 436.805,535.371 sg13_lv_nmos
M$145 VSS \$734 \$735 VSS sg13_lv_nmos W=0.74 L=0.13
* device instance $146 r0 *1 436.815,553.216 sg13_lv_nmos
M$146 \$781 \$689 \$588 VSS sg13_lv_nmos W=2.0 L=0.13
* device instance $147 r0 *1 443.55,535.276 sg13_lv_nmos
M$147 VSS \$736 \$736 VSS sg13_lv_nmos W=2.5 L=1.5
* device instance $148 r0 *1 444.09,553.171 sg13_lv_nmos
M$148 \$736 \$685 \$793 VSS sg13_lv_nmos W=2.0 L=0.13
* device instance $149 r0 *1 449.83,597.155 sg13_lv_nmos
M$149 \$857 \$910 VSS VSS sg13_lv_nmos W=1.44 L=0.13
* device instance $151 r0 *1 450.86,597.155 sg13_lv_nmos
M$151 \$857 \$867 \$868 VSS sg13_lv_nmos W=1.44 L=0.13
* device instance $153 r0 *1 455.2,535.261 sg13_lv_nmos
M$153 VSS \$757 \$752 VSS sg13_lv_nmos W=2.5 L=1.5
* device instance $154 r0 *1 454.14,553.166 sg13_lv_nmos
M$154 \$793 \$631 \$791 VSS sg13_lv_nmos W=2.0 L=0.13
* device instance $155 r0 *1 455.45,553.166 sg13_lv_nmos
M$155 \$791 \$689 \$757 VSS sg13_lv_nmos W=2.0 L=0.13
* device instance $156 r0 *1 456.763,553.166 sg13_lv_nmos
M$156 \$791 \$181 \$752 VSS sg13_lv_nmos W=2.0 L=0.13
* device instance $157 r0 *1 466.5,535.261 sg13_lv_nmos
M$157 VSS \$631 \$737 VSS sg13_lv_nmos W=0.74 L=0.13
* device instance $158 r0 *1 467.935,535.356 sg13_lv_nmos
M$158 VSS \$522 \$738 VSS sg13_lv_nmos W=0.55 L=0.12999999999999998
* device instance $159 r0 *1 468.785,535.261 sg13_lv_nmos
M$159 VSS \$689 \$745 VSS sg13_lv_nmos W=0.74 L=0.13
* device instance $160 r0 *1 469.095,535.261 sg13_lv_nmos
M$160 \$745 \$738 \$739 VSS sg13_lv_nmos W=0.74 L=0.13
* device instance $161 r0 *1 469.07,553.206 sg13_lv_nmos
M$161 \$782 \$741 VLO VSS sg13_lv_nmos W=0.5 L=0.13
* device instance $162 r0 *1 469.99,597.155 sg13_lv_nmos
M$162 \$864 \$863 VSS VSS sg13_lv_nmos W=1.44 L=0.13
* device instance $164 r0 *1 471.02,597.155 sg13_lv_nmos
M$164 \$864 \$861 \$869 VSS sg13_lv_nmos W=1.44 L=0.13
* device instance $166 r0 *1 470.785,535.421 sg13_lv_nmos
M$166 \$740 \$689 \$743 VSS sg13_lv_nmos W=0.64 L=0.13
* device instance $167 r0 *1 471.295,535.421 sg13_lv_nmos
M$167 VSS \$522 \$743 VSS sg13_lv_nmos W=0.64 L=0.13
* device instance $168 r0 *1 471.805,535.371 sg13_lv_nmos
M$168 VSS \$740 \$741 VSS sg13_lv_nmos W=0.74 L=0.13
* device instance $169 r0 *1 471.815,553.216 sg13_lv_nmos
M$169 \$782 \$631 \$752 VSS sg13_lv_nmos W=2.0 L=0.13
* device instance $170 r0 *1 478.55,535.276 sg13_lv_nmos
M$170 VSS \$569 \$569 VSS sg13_lv_nmos W=2.5 L=1.5
* device instance $171 r0 *1 479.09,553.171 sg13_lv_nmos
M$171 \$569 \$627 \$792 VSS sg13_lv_nmos W=2.0 L=0.13
* device instance $172 r0 *1 490.2,535.261 sg13_lv_nmos
M$172 VSS \$758 \$564 VSS sg13_lv_nmos W=2.5 L=1.5
* device instance $173 r0 *1 489.14,553.166 sg13_lv_nmos
M$173 \$792 \$689 \$798 VSS sg13_lv_nmos W=2.0 L=0.13
* device instance $174 r0 *1 490.45,553.166 sg13_lv_nmos
M$174 \$798 \$631 \$758 VSS sg13_lv_nmos W=2.0 L=0.13
* device instance $175 r0 *1 491.763,553.166 sg13_lv_nmos
M$175 \$798 \$181 \$564 VSS sg13_lv_nmos W=2.0 L=0.13
* device instance $176 r0 *1 452.635,597.18 sg13_lv_nmos
M$176 VSS \$868 \$858 VSS sg13_lv_nmos W=2.96 L=0.13
* device instance $180 r0 *1 455.515,597.18 sg13_lv_nmos
M$180 VSS \$858 \$859 VSS sg13_lv_nmos W=2.96 L=0.13
* device instance $184 r0 *1 458.395,597.18 sg13_lv_nmos
M$184 VSS \$859 \$860 VSS sg13_lv_nmos W=2.96 L=0.13
* device instance $188 r0 *1 461.275,597.18 sg13_lv_nmos
M$188 VSS \$860 \$861 VSS sg13_lv_nmos W=2.96 L=0.13
* device instance $192 r0 *1 464.155,597.18 sg13_lv_nmos
M$192 VSS \$861 \$862 VSS sg13_lv_nmos W=2.96 L=0.13
* device instance $196 r0 *1 467.035,597.18 sg13_lv_nmos
M$196 VSS \$862 \$863 VSS sg13_lv_nmos W=2.96 L=0.13
* device instance $200 r0 *1 472.795,597.18 sg13_lv_nmos
M$200 VSS \$869 \$865 VSS sg13_lv_nmos W=2.96 L=0.13
* device instance $204 r0 *1 475.615,597.18 sg13_lv_nmos
M$204 VSS \$865 \$866 VSS sg13_lv_nmos W=5.920000000000001 L=0.13
* device instance $212 r0 *1 445.935,602.98 sg13_lv_nmos
M$212 VSS \$853 \$867 VSS sg13_lv_nmos W=1.48 L=0.13
* device instance $214 r0 *1 447.855,602.98 sg13_lv_nmos
M$214 VSS \$867 \$903 VSS sg13_lv_nmos W=1.48 L=0.13
* device instance $216 r0 *1 449.83,602.955 sg13_lv_nmos
M$216 \$904 \$863 VSS VSS sg13_lv_nmos W=1.44 L=0.13
* device instance $218 r0 *1 450.86,602.955 sg13_lv_nmos
M$218 \$904 \$903 \$914 VSS sg13_lv_nmos W=1.44 L=0.13
* device instance $220 r0 *1 452.635,602.98 sg13_lv_nmos
M$220 VSS \$914 \$905 VSS sg13_lv_nmos W=2.96 L=0.13
* device instance $224 r0 *1 455.515,602.98 sg13_lv_nmos
M$224 VSS \$905 \$906 VSS sg13_lv_nmos W=2.96 L=0.13
* device instance $228 r0 *1 458.395,602.98 sg13_lv_nmos
M$228 VSS \$906 \$907 VSS sg13_lv_nmos W=2.96 L=0.13
* device instance $232 r0 *1 461.275,602.98 sg13_lv_nmos
M$232 VSS \$907 \$908 VSS sg13_lv_nmos W=2.96 L=0.13
* device instance $236 r0 *1 464.155,602.98 sg13_lv_nmos
M$236 VSS \$908 \$909 VSS sg13_lv_nmos W=2.96 L=0.13
* device instance $240 r0 *1 467.035,602.98 sg13_lv_nmos
M$240 VSS \$909 \$910 VSS sg13_lv_nmos W=2.96 L=0.13
* device instance $244 r0 *1 469.99,602.955 sg13_lv_nmos
M$244 \$911 \$910 VSS VSS sg13_lv_nmos W=1.44 L=0.13
* device instance $246 r0 *1 471.02,602.955 sg13_lv_nmos
M$246 \$911 \$908 \$915 VSS sg13_lv_nmos W=1.44 L=0.13
* device instance $248 r0 *1 472.795,602.98 sg13_lv_nmos
M$248 VSS \$915 \$912 VSS sg13_lv_nmos W=2.96 L=0.13
* device instance $252 r0 *1 475.615,602.98 sg13_lv_nmos
M$252 VSS \$912 \$913 VSS sg13_lv_nmos W=5.920000000000001 L=0.13
* device instance $260 r0 *1 433.27,616.415 sg13_lv_nmos
M$260 VSS \$913 \$975 VSS sg13_lv_nmos W=0.74 L=0.13
* device instance $261 r0 *1 434.36,616.51 sg13_lv_nmos
M$261 VSS \$946 \$979 VSS sg13_lv_nmos W=0.55 L=0.12999999999999998
* device instance $262 r0 *1 435.21,616.415 sg13_lv_nmos
M$262 VSS \$866 \$988 VSS sg13_lv_nmos W=0.74 L=0.13
* device instance $263 r0 *1 435.52,616.415 sg13_lv_nmos
M$263 \$988 \$979 \$976 VSS sg13_lv_nmos W=0.74 L=0.13
* device instance $264 r0 *1 436.85,616.575 sg13_lv_nmos
M$264 \$984 \$866 \$996 VSS sg13_lv_nmos W=0.64 L=0.13
* device instance $265 r0 *1 437.36,616.575 sg13_lv_nmos
M$265 VSS \$946 \$996 VSS sg13_lv_nmos W=0.64 L=0.13
* device instance $266 r0 *1 437.87,616.525 sg13_lv_nmos
M$266 VSS \$984 \$967 VSS sg13_lv_nmos W=0.74 L=0.13
* device instance $267 r0 *1 441.655,618.475 sg13_lv_nmos
M$267 VLO \$967 \$1036 VSS sg13_lv_nmos W=0.5 L=0.13
* device instance $268 r0 *1 454.37,617.83 sg13_lv_nmos
M$268 \$1105 \$913 \$1071 VSS sg13_lv_nmos W=2.0 L=0.13
* device instance $269 r0 *1 454.37,618.34 sg13_lv_nmos
M$269 \$1071 \$181 \$1015 VSS sg13_lv_nmos W=2.0 L=0.13
* device instance $270 r0 *1 454.37,616.04 sg13_lv_nmos
M$270 \$968 \$909 \$993 VSS sg13_lv_nmos W=2.0 L=0.13
* device instance $271 r0 *1 454.37,616.55 sg13_lv_nmos
M$271 \$993 \$866 \$1071 VSS sg13_lv_nmos W=2.0 L=0.13
* device instance $272 r0 *1 469.325,616.415 sg13_lv_nmos
M$272 VSS \$866 \$977 VSS sg13_lv_nmos W=0.74 L=0.13
* device instance $273 r0 *1 470.415,616.51 sg13_lv_nmos
M$273 VSS \$947 \$980 VSS sg13_lv_nmos W=0.55 L=0.12999999999999998
* device instance $274 r0 *1 471.265,616.415 sg13_lv_nmos
M$274 VSS \$913 \$991 VSS sg13_lv_nmos W=0.74 L=0.13
* device instance $275 r0 *1 471.575,616.415 sg13_lv_nmos
M$275 \$991 \$980 \$978 VSS sg13_lv_nmos W=0.74 L=0.13
* device instance $276 r0 *1 472.905,616.575 sg13_lv_nmos
M$276 \$985 \$913 \$1004 VSS sg13_lv_nmos W=0.64 L=0.13
* device instance $277 r0 *1 473.415,616.575 sg13_lv_nmos
M$277 VSS \$947 \$1004 VSS sg13_lv_nmos W=0.64 L=0.13
* device instance $278 r0 *1 473.925,616.525 sg13_lv_nmos
M$278 VSS \$985 \$969 VSS sg13_lv_nmos W=0.74 L=0.13
* device instance $279 r0 *1 477.71,618.475 sg13_lv_nmos
M$279 VLO \$969 \$1016 VSS sg13_lv_nmos W=0.5 L=0.13
* device instance $280 r0 *1 490.425,617.83 sg13_lv_nmos
M$280 \$1106 \$866 \$1072 VSS sg13_lv_nmos W=2.0 L=0.13
* device instance $281 r0 *1 490.425,618.34 sg13_lv_nmos
M$281 \$1072 \$181 \$1017 VSS sg13_lv_nmos W=2.0 L=0.13
* device instance $282 r0 *1 490.425,616.04 sg13_lv_nmos
M$282 \$970 \$862 \$994 VSS sg13_lv_nmos W=2.0 L=0.13
* device instance $283 r0 *1 490.425,616.55 sg13_lv_nmos
M$283 \$994 \$913 \$1072 VSS sg13_lv_nmos W=2.0 L=0.13
* device instance $284 r0 *1 505.425,616.53 sg13_lv_nmos
M$284 VSS \$913 \$981 VSS sg13_lv_nmos W=0.74 L=0.13
* device instance $285 r0 *1 520.915,619.83 sg13_lv_nmos
M$285 \$1037 \$1047 \$1049 VSS sg13_lv_nmos W=0.42 L=0.13
* device instance $286 r0 *1 521.225,619.83 sg13_lv_nmos
M$286 \$1049 \$1032 VSS VSS sg13_lv_nmos W=0.42 L=0.13
* device instance $287 r0 *1 521.805,620.215 sg13_lv_nmos
M$287 VSS \$1062 \$1038 VSS sg13_lv_nmos W=0.74 L=0.13
* device instance $288 r0 *1 522.895,619.895 sg13_lv_nmos
M$288 VSS \$1032 \$1050 VSS sg13_lv_nmos W=0.42 L=0.13
* device instance $289 r0 *1 523.205,619.895 sg13_lv_nmos
M$289 \$1050 \$1038 \$1046 VSS sg13_lv_nmos W=0.42 L=0.13
* device instance $290 r0 *1 528.06,620.215 sg13_lv_nmos
M$290 \$1048 \$1039 \$1040 VSS sg13_lv_nmos W=0.42 L=0.13
* device instance $291 r0 *1 528.595,620.055 sg13_lv_nmos
M$291 \$1038 \$1073 \$1048 VSS sg13_lv_nmos W=0.74 L=0.13
* device instance $292 r0 *1 529.645,619.83 sg13_lv_nmos
M$292 \$1040 \$1041 VSS VSS sg13_lv_nmos W=0.42 L=0.13
* device instance $293 r0 *1 530.155,619.83 sg13_lv_nmos
M$293 VSS \$1032 \$1052 VSS sg13_lv_nmos W=0.42 L=0.13
* device instance $294 r0 *1 530.465,619.83 sg13_lv_nmos
M$294 \$1052 \$1048 \$1041 VSS sg13_lv_nmos W=0.42 L=0.13
* device instance $295 r0 *1 532.505,619.94 sg13_lv_nmos
M$295 VSS \$1048 \$1043 VSS sg13_lv_nmos W=0.64 L=0.13
* device instance $296 r0 *1 531.485,619.99 sg13_lv_nmos
M$296 VSS \$1048 \$1042 VSS sg13_lv_nmos W=1.48 L=0.13
* device instance $298 r0 *1 533.525,619.99 sg13_lv_nmos
M$298 VSS \$1043 \$946 VSS sg13_lv_nmos W=1.48 L=0.13
* device instance $300 r0 *1 535.21,620.01 sg13_lv_nmos
M$300 VSS \$946 \$1010 VSS sg13_lv_nmos W=1.48 L=0.13
* device instance $302 r0 *1 537,620.005 sg13_lv_nmos
M$302 \$1032 \$181 VSS VSS sg13_lv_nmos W=0.74 L=0.13
* device instance $303 r0 *1 433.495,621.675 sg13_lv_nmos
M$303 \$1333 \$913 \$1036 VSS sg13_lv_nmos W=2.0 L=0.13
* device instance $304 r0 *1 456.64,623.065 sg13_lv_nmos
M$304 VSS \$1105 \$1015 VSS sg13_lv_nmos W=2.5 L=1.5
* device instance $305 r0 *1 462.64,623.065 sg13_lv_nmos
M$305 VSS \$968 \$968 VSS sg13_lv_nmos W=2.5 L=1.5
* device instance $306 r0 *1 469.55,621.675 sg13_lv_nmos
M$306 \$1015 \$866 \$1016 VSS sg13_lv_nmos W=2.0 L=0.13
* device instance $307 r0 *1 492.695,623.065 sg13_lv_nmos
M$307 VSS \$1106 \$1017 VSS sg13_lv_nmos W=2.5 L=1.5
* device instance $308 r0 *1 498.695,623.065 sg13_lv_nmos
M$308 VSS \$970 \$970 VSS sg13_lv_nmos W=2.5 L=1.5
* device instance $309 r0 *1 505.05,623.5 sg13_lv_nmos
M$309 \$1061 \$913 \$1017 VSS sg13_lv_nmos W=2.0 L=0.13
* device instance $310 r0 *1 509.96,626.51 sg13_lv_nmos
M$310 VSS \$970 \$1115 VSS sg13_lv_nmos W=2.0 L=1.0
* device instance $311 r0 *1 514.885,626.51 sg13_lv_nmos
M$311 VSS \$1061 \$1116 VSS sg13_lv_nmos W=2.0 L=1.0
* device instance $312 r0 *1 523.98,620.62 sg13_lv_nmos
M$312 \$1037 \$1039 \$1062 VSS sg13_lv_nmos W=0.42 L=0.13
* device instance $313 r0 *1 524.49,620.62 sg13_lv_nmos
M$313 \$1062 \$1073 \$1046 VSS sg13_lv_nmos W=0.42 L=0.13
* device instance $314 r0 *1 525.75,620.095 sg13_lv_nmos
M$314 VSS \$1039 \$1073 VSS sg13_lv_nmos W=0.74 L=0.13
* device instance $315 r0 *1 526.85,620.095 sg13_lv_nmos
M$315 VSS \$913 \$1039 VSS sg13_lv_nmos W=0.74 L=0.13
* device instance $316 r0 *1 532.795,625.47 sg13_lv_nmos
M$316 VSS \$1103 \$947 VSS sg13_lv_nmos W=1.48 L=0.13
* device instance $318 r0 *1 532.845,626.49 sg13_lv_nmos
M$318 VSS \$1047 \$1103 VSS sg13_lv_nmos W=0.64 L=0.13
* device instance $319 r0 *1 522.75,627.29 sg13_lv_nmos
M$319 VSS \$1134 \$1117 VSS sg13_lv_nmos W=2.0 L=0.13
* device instance $320 r0 *1 529.69,627.28 sg13_lv_nmos
M$320 VSS \$1133 \$1118 VSS sg13_lv_nmos W=2.0 L=0.13
* device instance $321 r0 *1 509.855,627.99 sg13_lv_nmos
M$321 \$1115 \$866 \$1123 VSS sg13_lv_nmos W=2.0 L=0.13
* device instance $322 r0 *1 514.795,627.99 sg13_lv_nmos
M$322 \$1116 \$866 \$1124 VSS sg13_lv_nmos W=2.0 L=0.13
* device instance $323 r0 *1 523.03,628.795 sg13_lv_nmos
M$323 \$1117 \$1047 \$1129 VSS sg13_lv_nmos W=2.0 L=0.13
* device instance $324 r0 *1 529.34,628.76 sg13_lv_nmos
M$324 \$1118 \$1129 \$1047 VSS sg13_lv_nmos W=2.0 L=0.13
* device instance $325 r0 *1 509.835,629.77 sg13_lv_nmos
M$325 \$1123 \$1134 \$1133 VSS sg13_lv_nmos W=2.0 L=0.13
* device instance $326 r0 *1 514.62,629.77 sg13_lv_nmos
M$326 \$1124 \$1133 \$1134 VSS sg13_lv_nmos W=2.0 L=0.13
* device instance $327 r0 *1 1060.995,797.48 sg13_lv_nmos
M$327 \$1281 \$1010 VSS VSS sg13_lv_nmos W=2.75 L=0.13
* device instance $328 r0 *1 1060.995,800.99 sg13_lv_nmos
M$328 \$1308 \$1010 VSS VSS sg13_lv_nmos W=2.75 L=0.13
* device instance $329 r0 *1 1060.995,897.48 sg13_lv_nmos
M$329 \$1395 \$1397 VSS VSS sg13_lv_nmos W=2.75 L=0.13
* device instance $330 r0 *1 1060.995,900.99 sg13_lv_nmos
M$330 \$1423 \$1397 VSS VSS sg13_lv_nmos W=2.75 L=0.13
* device instance $331 r0 *1 1060.995,997.48 sg13_lv_nmos
M$331 \$1510 \$1512 VSS VSS sg13_lv_nmos W=2.75 L=0.13
* device instance $332 r0 *1 1060.995,1000.99 sg13_lv_nmos
M$332 \$1538 \$1512 VSS VSS sg13_lv_nmos W=2.75 L=0.13
* device instance $333 r0 *1 700.255,1060.995 sg13_lv_nmos
M$333 \$853 \$1607 VSS VSS sg13_lv_nmos W=2.75 L=0.13
* device instance $334 r0 *1 800.255,1060.995 sg13_lv_nmos
M$334 \$1601 \$1608 VSS VSS sg13_lv_nmos W=2.75 L=0.13
* device instance $335 r0 *1 900.255,1060.995 sg13_lv_nmos
M$335 \$1602 \$1609 VSS VSS sg13_lv_nmos W=2.75 L=0.13
* device instance $336 r0 *1 501.765,239.055 sg13_hv_nmos
M$336 VSS \$129 \$186 VSS sg13_hv_nmos W=2.65 L=0.44999999999999996
* device instance $337 r0 *1 701.765,239.055 sg13_hv_nmos
M$337 VSS \$130 \$187 VSS sg13_hv_nmos W=2.65 L=0.44999999999999996
* device instance $338 r0 *1 801.765,239.055 sg13_hv_nmos
M$338 VSS \$132 \$188 VSS sg13_hv_nmos W=2.65 L=0.44999999999999996
* device instance $339 r0 *1 901.765,239.055 sg13_hv_nmos
M$339 VSS \$133 \$189 VSS sg13_hv_nmos W=2.65 L=0.44999999999999996
* device instance $340 r0 *1 90.95,285.52 sg13_hv_nmos
M$340 VSS \$225 IN6 VSS sg13_hv_nmos W=88.00000000000001 L=0.5999999999999999
* device instance $360 r0 *1 1209.05,294.58 sg13_hv_nmos
M$360 VSS \$252 OUT6 VSS sg13_hv_nmos W=35.199999999999996 L=0.5999999999999999
* device instance $368 r0 *1 1064.68,297.64 sg13_hv_nmos
M$368 \$236 \$237 VSS VSS sg13_hv_nmos W=1.9000000000000001
+ L=0.44999999999999996
* device instance $369 r0 *1 1064.68,298.47 sg13_hv_nmos
M$369 VSS \$235 \$246 VSS sg13_hv_nmos W=1.9000000000000001
+ L=0.44999999999999996
* device instance $370 r0 *1 1064.68,299.81 sg13_hv_nmos
M$370 VSS \$246 \$252 VSS sg13_hv_nmos W=1.9000000000000001
+ L=0.44999999999999996
* device instance $371 r0 *1 1064.68,301.15 sg13_hv_nmos
M$371 \$264 \$237 VSS VSS sg13_hv_nmos W=1.9000000000000001
+ L=0.44999999999999996
* device instance $372 r0 *1 1064.68,301.98 sg13_hv_nmos
M$372 VSS \$263 \$271 VSS sg13_hv_nmos W=1.9000000000000001
+ L=0.44999999999999996
* device instance $373 r0 *1 1064.68,303.32 sg13_hv_nmos
M$373 VSS \$271 \$216 VSS sg13_hv_nmos W=1.9000000000000001
+ L=0.44999999999999996
* device instance $374 r0 *1 90.95,385.52 sg13_hv_nmos
M$374 VSS \$340 IN5 VSS sg13_hv_nmos W=88.00000000000001 L=0.5999999999999999
* device instance $394 r0 *1 1209.05,394.58 sg13_hv_nmos
M$394 VSS \$367 OUT5 VSS sg13_hv_nmos W=35.199999999999996 L=0.5999999999999999
* device instance $402 r0 *1 1064.68,397.64 sg13_hv_nmos
M$402 \$351 \$352 VSS VSS sg13_hv_nmos W=1.9000000000000001
+ L=0.44999999999999996
* device instance $403 r0 *1 1064.68,398.47 sg13_hv_nmos
M$403 VSS \$350 \$361 VSS sg13_hv_nmos W=1.9000000000000001
+ L=0.44999999999999996
* device instance $404 r0 *1 1064.68,399.81 sg13_hv_nmos
M$404 VSS \$361 \$367 VSS sg13_hv_nmos W=1.9000000000000001
+ L=0.44999999999999996
* device instance $405 r0 *1 1064.68,401.15 sg13_hv_nmos
M$405 \$379 \$352 VSS VSS sg13_hv_nmos W=1.9000000000000001
+ L=0.44999999999999996
* device instance $406 r0 *1 1064.68,401.98 sg13_hv_nmos
M$406 VSS \$378 \$386 VSS sg13_hv_nmos W=1.9000000000000001
+ L=0.44999999999999996
* device instance $407 r0 *1 1064.68,403.32 sg13_hv_nmos
M$407 VSS \$386 \$331 VSS sg13_hv_nmos W=1.9000000000000001
+ L=0.44999999999999996
* device instance $408 r0 *1 90.95,485.52 sg13_hv_nmos
M$408 VSS \$455 IN4 VSS sg13_hv_nmos W=88.00000000000001 L=0.5999999999999999
* device instance $428 r0 *1 1209.05,494.58 sg13_hv_nmos
M$428 VSS \$482 OUT4 VSS sg13_hv_nmos W=35.199999999999996 L=0.5999999999999999
* device instance $436 r0 *1 1064.68,497.64 sg13_hv_nmos
M$436 \$466 \$467 VSS VSS sg13_hv_nmos W=1.9000000000000001
+ L=0.44999999999999996
* device instance $437 r0 *1 1064.68,498.47 sg13_hv_nmos
M$437 VSS \$465 \$476 VSS sg13_hv_nmos W=1.9000000000000001
+ L=0.44999999999999996
* device instance $438 r0 *1 1064.68,499.81 sg13_hv_nmos
M$438 VSS \$476 \$482 VSS sg13_hv_nmos W=1.9000000000000001
+ L=0.44999999999999996
* device instance $439 r0 *1 1064.68,501.15 sg13_hv_nmos
M$439 \$494 \$467 VSS VSS sg13_hv_nmos W=1.9000000000000001
+ L=0.44999999999999996
* device instance $440 r0 *1 1064.68,501.98 sg13_hv_nmos
M$440 VSS \$493 \$501 VSS sg13_hv_nmos W=1.9000000000000001
+ L=0.44999999999999996
* device instance $441 r0 *1 1064.68,503.32 sg13_hv_nmos
M$441 VSS \$501 \$446 VSS sg13_hv_nmos W=1.9000000000000001
+ L=0.44999999999999996
* device instance $442 r0 *1 90.95,585.52 sg13_hv_nmos
M$442 VSS \$845 VLO VSS sg13_hv_nmos W=88.00000000000001 L=0.5999999999999999
* device instance $462 r0 *1 1139.21,663.22 sg13_hv_nmos
M$462 VSS \$1185 \$1184 VSS sg13_hv_nmos W=108.0 L=0.5
* device instance $468 r0 *1 1139.21,673 sg13_hv_nmos
M$468 VSS \$1185 VSS VSS sg13_hv_nmos W=126.0 L=9.5
* device instance $488 r0 *1 1194.53,668.155 sg13_hv_nmos
M$488 VSS \$1184 IOVDD VSS sg13_hv_nmos W=756.7999999999977 L=0.5999999999999999
* device instance $660 r0 *1 90.95,685.52 sg13_hv_nmos
M$660 VSS \$1190 VHI VSS sg13_hv_nmos W=88.00000000000001 L=0.5999999999999999
* device instance $680 r0 *1 90.95,785.52 sg13_hv_nmos
M$680 VSS \$1271 IN3 VSS sg13_hv_nmos W=88.00000000000001 L=0.5999999999999999
* device instance $700 r0 *1 1209.05,794.58 sg13_hv_nmos
M$700 VSS \$1297 OUT3 VSS sg13_hv_nmos W=35.199999999999996 L=0.5999999999999999
* device instance $708 r0 *1 1064.68,797.64 sg13_hv_nmos
M$708 \$1282 \$1010 VSS VSS sg13_hv_nmos W=1.9000000000000001
+ L=0.44999999999999996
* device instance $709 r0 *1 1064.68,798.47 sg13_hv_nmos
M$709 VSS \$1281 \$1291 VSS sg13_hv_nmos W=1.9000000000000001
+ L=0.44999999999999996
* device instance $710 r0 *1 1064.68,799.81 sg13_hv_nmos
M$710 VSS \$1291 \$1297 VSS sg13_hv_nmos W=1.9000000000000001
+ L=0.44999999999999996
* device instance $711 r0 *1 1064.68,801.15 sg13_hv_nmos
M$711 \$1309 \$1010 VSS VSS sg13_hv_nmos W=1.9000000000000001
+ L=0.44999999999999996
* device instance $712 r0 *1 1064.68,801.98 sg13_hv_nmos
M$712 VSS \$1308 \$1316 VSS sg13_hv_nmos W=1.9000000000000001
+ L=0.44999999999999996
* device instance $713 r0 *1 1064.68,803.32 sg13_hv_nmos
M$713 VSS \$1316 \$1262 VSS sg13_hv_nmos W=1.9000000000000001
+ L=0.44999999999999996
* device instance $714 r0 *1 90.95,885.52 sg13_hv_nmos
M$714 VSS \$1385 IN2 VSS sg13_hv_nmos W=88.00000000000001 L=0.5999999999999999
* device instance $734 r0 *1 1209.05,894.58 sg13_hv_nmos
M$734 VSS \$1412 OUT2 VSS sg13_hv_nmos W=35.199999999999996 L=0.5999999999999999
* device instance $742 r0 *1 1064.68,897.64 sg13_hv_nmos
M$742 \$1396 \$1397 VSS VSS sg13_hv_nmos W=1.9000000000000001
+ L=0.44999999999999996
* device instance $743 r0 *1 1064.68,898.47 sg13_hv_nmos
M$743 VSS \$1395 \$1406 VSS sg13_hv_nmos W=1.9000000000000001
+ L=0.44999999999999996
* device instance $744 r0 *1 1064.68,899.81 sg13_hv_nmos
M$744 VSS \$1406 \$1412 VSS sg13_hv_nmos W=1.9000000000000001
+ L=0.44999999999999996
* device instance $745 r0 *1 1064.68,901.15 sg13_hv_nmos
M$745 \$1424 \$1397 VSS VSS sg13_hv_nmos W=1.9000000000000001
+ L=0.44999999999999996
* device instance $746 r0 *1 1064.68,901.98 sg13_hv_nmos
M$746 VSS \$1423 \$1431 VSS sg13_hv_nmos W=1.9000000000000001
+ L=0.44999999999999996
* device instance $747 r0 *1 1064.68,903.32 sg13_hv_nmos
M$747 VSS \$1431 \$1376 VSS sg13_hv_nmos W=1.9000000000000001
+ L=0.44999999999999996
* device instance $748 r0 *1 90.95,985.52 sg13_hv_nmos
M$748 VSS \$1500 IN1 VSS sg13_hv_nmos W=88.00000000000001 L=0.5999999999999999
* device instance $768 r0 *1 1209.05,994.58 sg13_hv_nmos
M$768 VSS \$1527 OUT1 VSS sg13_hv_nmos W=35.199999999999996 L=0.5999999999999999
* device instance $776 r0 *1 1064.68,997.64 sg13_hv_nmos
M$776 \$1511 \$1512 VSS VSS sg13_hv_nmos W=1.9000000000000001
+ L=0.44999999999999996
* device instance $777 r0 *1 1064.68,998.47 sg13_hv_nmos
M$777 VSS \$1510 \$1521 VSS sg13_hv_nmos W=1.9000000000000001
+ L=0.44999999999999996
* device instance $778 r0 *1 1064.68,999.81 sg13_hv_nmos
M$778 VSS \$1521 \$1527 VSS sg13_hv_nmos W=1.9000000000000001
+ L=0.44999999999999996
* device instance $779 r0 *1 1064.68,1001.15 sg13_hv_nmos
M$779 \$1539 \$1512 VSS VSS sg13_hv_nmos W=1.9000000000000001