* Extracted by KLayout with SG13G2 LVS runset on : 06/05/2024 23:05

* cell UHEE628_S2024
* pin RES
* pin CK4
* pin CK5
* pin CK6
* pin IOVDD
* pin AVDD
* pin VDD
* pin IN6
* pin OUT6
* pin IN5
* pin OUT5
* pin IN4
* pin OUT4
* pin VLO
* pin VHI
* pin IN3
* pin OUT3
* pin VLDO
* pin IN2
* pin OUT2
* pin IN1
* pin OUT1
* pin VREF
* pin CK3
* pin CK2
* pin CK1
* pin VSS
.SUBCKT UHEE628_S2024 RES CK4 CK5 CK6 IOVDD AVDD VDD IN6 OUT6 IN5 OUT5 IN4 OUT4
+ VLO VHI IN3 OUT3 VLDO IN2 OUT2 IN1 OUT1 VREF CK3 CK2 CK1 VSS
* device instance $1 r0 *1 500.255,239.005 sg13_lv_nmos
M$1 \$181 \$186 VSS VSS sg13_lv_nmos W=2.75 L=0.13
* device instance $2 r0 *1 700.255,239.005 sg13_lv_nmos
M$2 \$182 \$187 VSS VSS sg13_lv_nmos W=2.75 L=0.13
* device instance $3 r0 *1 800.255,239.005 sg13_lv_nmos
M$3 \$183 \$188 VSS VSS sg13_lv_nmos W=2.75 L=0.13
* device instance $4 r0 *1 900.255,239.005 sg13_lv_nmos
M$4 \$184 \$189 VSS VSS sg13_lv_nmos W=2.75 L=0.13
* device instance $5 r0 *1 1060.995,297.48 sg13_lv_nmos
M$5 \$235 \$237 VSS VSS sg13_lv_nmos W=2.75 L=0.13
* device instance $6 r0 *1 1060.995,300.99 sg13_lv_nmos
M$6 \$263 \$237 VSS VSS sg13_lv_nmos W=2.75 L=0.13
* device instance $7 r0 *1 1060.995,397.48 sg13_lv_nmos
M$7 \$350 \$352 VSS VSS sg13_lv_nmos W=2.75 L=0.13
* device instance $8 r0 *1 1060.995,400.99 sg13_lv_nmos
M$8 \$378 \$352 VSS VSS sg13_lv_nmos W=2.75 L=0.13
* device instance $9 r0 *1 1060.995,497.48 sg13_lv_nmos
M$9 \$465 \$467 VSS VSS sg13_lv_nmos W=2.75 L=0.13
* device instance $10 r0 *1 1060.995,500.99 sg13_lv_nmos
M$10 \$493 \$467 VSS VSS sg13_lv_nmos W=2.75 L=0.13
* device instance $11 r0 *1 485.618,504.427 sg13_lv_nmos
M$11 \$517 \$527 \$533 VSS sg13_lv_nmos W=0.42 L=0.13
* device instance $12 r0 *1 486.008,504.427 sg13_lv_nmos
M$12 \$533 \$518 VSS VSS sg13_lv_nmos W=0.42 L=0.13
* device instance $13 r0 *1 486.568,504.427 sg13_lv_nmos
M$13 VSS \$504 \$532 VSS sg13_lv_nmos W=0.42 L=0.13
* device instance $14 r0 *1 486.923,504.427 sg13_lv_nmos
M$14 \$532 \$517 \$518 VSS sg13_lv_nmos W=0.42 L=0.13
* device instance $15 r0 *1 483.978,504.537 sg13_lv_nmos
M$15 VSS \$515 \$516 VSS sg13_lv_nmos W=0.64 L=0.13
* device instance $16 r0 *1 484.648,504.537 sg13_lv_nmos
M$16 \$516 \$510 \$517 VSS sg13_lv_nmos W=0.64 L=0.13
* device instance $17 r0 *1 482.098,504.652 sg13_lv_nmos
M$17 \$514 \$527 \$515 VSS sg13_lv_nmos W=0.42 L=0.13
* device instance $18 r0 *1 482.608,504.652 sg13_lv_nmos
M$18 \$515 \$510 \$531 VSS sg13_lv_nmos W=0.42 L=0.13
* device instance $19 r0 *1 482.998,504.652 sg13_lv_nmos
M$19 \$531 \$516 \$530 VSS sg13_lv_nmos W=0.42 L=0.13
* device instance $20 r0 *1 483.358,504.652 sg13_lv_nmos
M$20 VSS \$504 \$530 VSS sg13_lv_nmos W=0.42 L=0.13
* device instance $21 r0 *1 476.768,504.592 sg13_lv_nmos
M$21 VSS \$689 \$513 VSS sg13_lv_nmos W=0.74 L=0.13
* device instance $22 r0 *1 487.963,504.592 sg13_lv_nmos
M$22 VSS \$517 \$519 VSS sg13_lv_nmos W=0.74 L=0.13
* device instance $23 r0 *1 489.163,504.497 sg13_lv_nmos
M$23 \$520 \$517 VSS VSS sg13_lv_nmos W=0.55 L=0.12999999999999998
* device instance $24 r0 *1 489.703,504.592 sg13_lv_nmos
M$24 VSS \$520 \$521 VSS sg13_lv_nmos W=0.74 L=0.13
* device instance $25 r0 *1 491.898,504.592 sg13_lv_nmos
M$25 VSS \$521 \$467 VSS sg13_lv_nmos W=1.48 L=0.13
* device instance $27 r0 *1 494.693,504.591 sg13_lv_nmos
M$27 VSS \$181 \$504 VSS sg13_lv_nmos W=0.74 L=0.13
* device instance $28 r0 *1 496.608,504.591 sg13_lv_nmos
M$28 VSS \$534 \$522 VSS sg13_lv_nmos W=1.48 L=0.13
* device instance $30 r0 *1 497.628,504.641 sg13_lv_nmos
M$30 VSS \$584 \$534 VSS sg13_lv_nmos W=0.64 L=0.13
* device instance $31 r0 *1 478.818,504.452 sg13_lv_nmos
M$31 \$514 \$584 \$529 VSS sg13_lv_nmos W=0.42 L=0.13
* device instance $32 r0 *1 479.188,504.452 sg13_lv_nmos
M$32 \$529 \$504 VSS VSS sg13_lv_nmos W=0.42 L=0.13
* device instance $33 r0 *1 480.333,504.767 sg13_lv_nmos
M$33 VSS \$689 \$527 VSS sg13_lv_nmos W=0.74 L=0.13
* device instance $34 r0 *1 480.843,504.767 sg13_lv_nmos
M$34 VSS \$527 \$510 VSS sg13_lv_nmos W=0.74 L=0.13
* device instance $35 r0 *1 481.503,510.997 sg13_lv_nmos
M$35 VSS \$569 \$574 VSS sg13_lv_nmos W=2.0 L=1.0
* device instance $36 r0 *1 481.703,513.099 sg13_lv_nmos
M$36 \$574 \$631 \$580 VSS sg13_lv_nmos W=2.0 L=0.13
* device instance $37 r0 *1 483.503,509.467 sg13_lv_nmos
M$37 \$564 \$689 \$565 VSS sg13_lv_nmos W=2.0 L=0.13
* device instance $38 r0 *1 482.903,513.099 sg13_lv_nmos
M$38 \$580 \$600 \$581 VSS sg13_lv_nmos W=2.0 L=0.13
* device instance $39 r0 *1 484.103,513.099 sg13_lv_nmos
M$39 \$600 \$581 \$582 VSS sg13_lv_nmos W=2.0 L=0.13
* device instance $40 r0 *1 485.503,510.997 sg13_lv_nmos
M$40 VSS \$565 \$575 VSS sg13_lv_nmos W=2.0 L=1.0
* device instance $41 r0 *1 485.303,513.099 sg13_lv_nmos
M$41 \$582 \$631 \$575 VSS sg13_lv_nmos W=2.0 L=0.13
* device instance $42 r0 *1 488.561,513.099 sg13_lv_nmos
M$42 VSS \$600 \$583 VSS sg13_lv_nmos W=2.0 L=0.13
* device instance $43 r0 *1 489.761,513.099 sg13_lv_nmos
M$43 \$583 \$584 \$609 VSS sg13_lv_nmos W=2.0 L=0.13
* device instance $44 r0 *1 490.961,513.099 sg13_lv_nmos
M$44 \$584 \$609 \$585 VSS sg13_lv_nmos W=2.0 L=0.13
* device instance $45 r0 *1 492.161,513.099 sg13_lv_nmos
M$45 \$585 \$581 VSS VSS sg13_lv_nmos W=2.0 L=0.13
* device instance $46 r0 *1 438.155,518.846 sg13_lv_nmos
M$46 VSS \$622 \$623 VSS sg13_lv_nmos W=2.96 L=0.13
* device instance $50 r0 *1 441.035,518.846 sg13_lv_nmos
M$50 VSS \$623 \$624 VSS sg13_lv_nmos W=2.96 L=0.13
* device instance $54 r0 *1 443.915,518.846 sg13_lv_nmos
M$54 VSS \$624 \$625 VSS sg13_lv_nmos W=2.96 L=0.13
* device instance $58 r0 *1 446.795,518.846 sg13_lv_nmos
M$58 VSS \$625 \$626 VSS sg13_lv_nmos W=2.96 L=0.13
* device instance $62 r0 *1 449.675,518.846 sg13_lv_nmos
M$62 VSS \$626 \$627 VSS sg13_lv_nmos W=2.96 L=0.13
* device instance $66 r0 *1 452.555,518.846 sg13_lv_nmos
M$66 VSS \$627 \$628 VSS sg13_lv_nmos W=2.96 L=0.13
* device instance $70 r0 *1 458.315,518.846 sg13_lv_nmos
M$70 VSS \$629 \$630 VSS sg13_lv_nmos W=2.96 L=0.13
* device instance $74 r0 *1 461.135,518.846 sg13_lv_nmos
M$74 VSS \$630 \$631 VSS sg13_lv_nmos W=5.920000000000001 L=0.13
* device instance $82 r0 *1 431.455,521.281 sg13_lv_nmos
M$82 VSS \$182 \$633 VSS sg13_lv_nmos W=1.48 L=0.13
* device instance $84 r0 *1 433.375,521.281 sg13_lv_nmos
M$84 VSS \$633 \$679 VSS sg13_lv_nmos W=1.48 L=0.13
* device instance $86 r0 *1 435.35,518.871 sg13_lv_nmos
M$86 \$657 \$686 VSS VSS sg13_lv_nmos W=1.44 L=0.13
* device instance $88 r0 *1 436.38,518.871 sg13_lv_nmos
M$88 \$657 \$633 \$622 VSS sg13_lv_nmos W=1.44 L=0.13
* device instance $90 r0 *1 435.35,521.256 sg13_lv_nmos
M$90 \$680 \$628 VSS VSS sg13_lv_nmos W=1.44 L=0.13
* device instance $92 r0 *1 436.38,521.256 sg13_lv_nmos
M$92 \$680 \$679 \$707 VSS sg13_lv_nmos W=1.44 L=0.13
* device instance $94 r0 *1 438.155,521.281 sg13_lv_nmos
M$94 VSS \$707 \$681 VSS sg13_lv_nmos W=2.96 L=0.13
* device instance $98 r0 *1 441.035,521.281 sg13_lv_nmos
M$98 VSS \$681 \$682 VSS sg13_lv_nmos W=2.96 L=0.13
* device instance $102 r0 *1 443.915,521.281 sg13_lv_nmos
M$102 VSS \$682 \$683 VSS sg13_lv_nmos W=2.96 L=0.13
* device instance $106 r0 *1 446.795,521.281 sg13_lv_nmos
M$106 VSS \$683 \$684 VSS sg13_lv_nmos W=2.96 L=0.13
* device instance $110 r0 *1 449.675,521.281 sg13_lv_nmos
M$110 VSS \$684 \$685 VSS sg13_lv_nmos W=2.96 L=0.13
* device instance $114 r0 *1 452.555,521.281 sg13_lv_nmos
M$114 VSS \$685 \$686 VSS sg13_lv_nmos W=2.96 L=0.13
* device instance $118 r0 *1 455.51,518.871 sg13_lv_nmos
M$118 \$658 \$628 VSS VSS sg13_lv_nmos W=1.44 L=0.13
* device instance $120 r0 *1 456.54,518.871 sg13_lv_nmos
M$120 \$658 \$626 \$629 VSS sg13_lv_nmos W=1.44 L=0.13
* device instance $122 r0 *1 455.51,521.256 sg13_lv_nmos
M$122 \$687 \$686 VSS VSS sg13_lv_nmos W=1.44 L=0.13
* device instance $124 r0 *1 456.54,521.256 sg13_lv_nmos
M$124 \$687 \$684 \$692 VSS sg13_lv_nmos W=1.44 L=0.13
* device instance $126 r0 *1 458.315,521.281 sg13_lv_nmos
M$126 VSS \$692 \$688 VSS sg13_lv_nmos W=2.96 L=0.13
* device instance $130 r0 *1 461.135,521.281 sg13_lv_nmos
M$130 VSS \$688 \$689 VSS sg13_lv_nmos W=5.920000000000001 L=0.13
* device instance $138 r0 *1 431.5,535.261 sg13_lv_nmos
M$138 VSS \$689 \$731 VSS sg13_lv_nmos W=0.74 L=0.13
* device instance $139 r0 *1 432.935,535.356 sg13_lv_nmos
M$139 VSS \$521 \$732 VSS sg13_lv_nmos W=0.55 L=0.12999999999999998
* device instance $140 r0 *1 433.785,535.261 sg13_lv_nmos
M$140 VSS \$631 \$750 VSS sg13_lv_nmos W=0.74 L=0.13
* device instance $141 r0 *1 434.095,535.261 sg13_lv_nmos
M$141 \$750 \$732 \$733 VSS sg13_lv_nmos W=0.74 L=0.13
* device instance $142 r0 *1 434.07,553.206 sg13_lv_nmos
M$142 \$791 \$735 VLO VSS sg13_lv_nmos W=0.5 L=0.13
* device instance $143 r0 *1 435.785,535.421 sg13_lv_nmos
M$143 \$734 \$631 \$747 VSS sg13_lv_nmos W=0.64 L=0.13
* device instance $144 r0 *1 436.295,535.421 sg13_lv_nmos
M$144 VSS \$521 \$747 VSS sg13_lv_nmos W=0.64 L=0.13
* device instance $145 r0 *1 436.805,535.371 sg13_lv_nmos
M$145 VSS \$734 \$735 VSS sg13_lv_nmos W=0.74 L=0.13
* device instance $146 r0 *1 436.815,553.216 sg13_lv_nmos
M$146 \$791 \$689 \$587 VSS sg13_lv_nmos W=2.0 L=0.13
* device instance $147 r0 *1 443.55,535.276 sg13_lv_nmos
M$147 VSS \$736 \$736 VSS sg13_lv_nmos W=2.5 L=1.5
* device instance $148 r0 *1 444.09,553.171 sg13_lv_nmos
M$148 \$736 \$685 \$789 VSS sg13_lv_nmos W=2.0 L=0.13
* device instance $149 r0 *1 449.83,597.155 sg13_lv_nmos
M$149 \$857 \$910 VSS VSS sg13_lv_nmos W=1.44 L=0.13
* device instance $151 r0 *1 450.86,597.155 sg13_lv_nmos
M$151 \$857 \$867 \$868 VSS sg13_lv_nmos W=1.44 L=0.13
* device instance $153 r0 *1 455.2,535.261 sg13_lv_nmos
M$153 VSS \$757 \$752 VSS sg13_lv_nmos W=2.5 L=1.5
* device instance $154 r0 *1 454.14,553.166 sg13_lv_nmos
M$154 \$789 \$631 \$797 VSS sg13_lv_nmos W=2.0 L=0.13
* device instance $155 r0 *1 455.45,553.166 sg13_lv_nmos
M$155 \$797 \$689 \$757 VSS sg13_lv_nmos W=2.0 L=0.13
* device instance $156 r0 *1 456.763,553.166 sg13_lv_nmos
M$156 \$797 \$181 \$752 VSS sg13_lv_nmos W=2.0 L=0.13
* device instance $157 r0 *1 466.5,535.261 sg13_lv_nmos
M$157 VSS \$631 \$737 VSS sg13_lv_nmos W=0.74 L=0.13
* device instance $158 r0 *1 467.935,535.356 sg13_lv_nmos
M$158 VSS \$522 \$738 VSS sg13_lv_nmos W=0.55 L=0.12999999999999998
* device instance $159 r0 *1 468.785,535.261 sg13_lv_nmos
M$159 VSS \$689 \$745 VSS sg13_lv_nmos W=0.74 L=0.13
* device instance $160 r0 *1 469.095,535.261 sg13_lv_nmos
M$160 \$745 \$738 \$739 VSS sg13_lv_nmos W=0.74 L=0.13
* device instance $161 r0 *1 469.07,553.206 sg13_lv_nmos
M$161 \$792 \$741 VLO VSS sg13_lv_nmos W=0.5 L=0.13
* device instance $162 r0 *1 469.99,597.155 sg13_lv_nmos
M$162 \$864 \$863 VSS VSS sg13_lv_nmos W=1.44 L=0.13
* device instance $164 r0 *1 471.02,597.155 sg13_lv_nmos
M$164 \$864 \$861 \$869 VSS sg13_lv_nmos W=1.44 L=0.13
* device instance $166 r0 *1 470.785,535.421 sg13_lv_nmos
M$166 \$740 \$689 \$743 VSS sg13_lv_nmos W=0.64 L=0.13
* device instance $167 r0 *1 471.295,535.421 sg13_lv_nmos
M$167 VSS \$522 \$743 VSS sg13_lv_nmos W=0.64 L=0.13
* device instance $168 r0 *1 471.805,535.371 sg13_lv_nmos
M$168 VSS \$740 \$741 VSS sg13_lv_nmos W=0.74 L=0.13
* device instance $169 r0 *1 471.815,553.216 sg13_lv_nmos
M$169 \$792 \$631 \$752 VSS sg13_lv_nmos W=2.0 L=0.13
* device instance $170 r0 *1 478.55,535.276 sg13_lv_nmos
M$170 VSS \$569 \$569 VSS sg13_lv_nmos W=2.5 L=1.5
* device instance $171 r0 *1 479.09,553.171 sg13_lv_nmos
M$171 \$569 \$627 \$790 VSS sg13_lv_nmos W=2.0 L=0.13
* device instance $172 r0 *1 490.2,535.261 sg13_lv_nmos
M$172 VSS \$758 \$564 VSS sg13_lv_nmos W=2.5 L=1.5
* device instance $173 r0 *1 489.14,553.166 sg13_lv_nmos
M$173 \$790 \$689 \$798 VSS sg13_lv_nmos W=2.0 L=0.13
* device instance $174 r0 *1 490.45,553.166 sg13_lv_nmos
M$174 \$798 \$631 \$758 VSS sg13_lv_nmos W=2.0 L=0.13
* device instance $175 r0 *1 491.763,553.166 sg13_lv_nmos
M$175 \$798 \$181 \$564 VSS sg13_lv_nmos W=2.0 L=0.13
* device instance $176 r0 *1 452.635,597.18 sg13_lv_nmos
M$176 VSS \$868 \$858 VSS sg13_lv_nmos W=2.96 L=0.13
* device instance $180 r0 *1 455.515,597.18 sg13_lv_nmos
M$180 VSS \$858 \$859 VSS sg13_lv_nmos W=2.96 L=0.13
* device instance $184 r0 *1 458.395,597.18 sg13_lv_nmos
M$184 VSS \$859 \$860 VSS sg13_lv_nmos W=2.96 L=0.13
* device instance $188 r0 *1 461.275,597.18 sg13_lv_nmos
M$188 VSS \$860 \$861 VSS sg13_lv_nmos W=2.96 L=0.13
* device instance $192 r0 *1 464.155,597.18 sg13_lv_nmos
M$192 VSS \$861 \$862 VSS sg13_lv_nmos W=2.96 L=0.13
* device instance $196 r0 *1 467.035,597.18 sg13_lv_nmos
M$196 VSS \$862 \$863 VSS sg13_lv_nmos W=2.96 L=0.13
* device instance $200 r0 *1 472.795,597.18 sg13_lv_nmos
M$200 VSS \$869 \$865 VSS sg13_lv_nmos W=2.96 L=0.13
* device instance $204 r0 *1 475.615,597.18 sg13_lv_nmos
M$204 VSS \$865 \$866 VSS sg13_lv_nmos W=5.920000000000001 L=0.13
* device instance $212 r0 *1 445.935,602.98 sg13_lv_nmos
M$212 VSS \$853 \$867 VSS sg13_lv_nmos W=1.48 L=0.13
* device instance $214 r0 *1 447.855,602.98 sg13_lv_nmos
M$214 VSS \$867 \$903 VSS sg13_lv_nmos W=1.48 L=0.13
* device instance $216 r0 *1 449.83,602.955 sg13_lv_nmos
M$216 \$904 \$863 VSS VSS sg13_lv_nmos W=1.44 L=0.13
* device instance $218 r0 *1 450.86,602.955 sg13_lv_nmos
M$218 \$904 \$903 \$914 VSS sg13_lv_nmos W=1.44 L=0.13
* device instance $220 r0 *1 452.635,602.98 sg13_lv_nmos
M$220 VSS \$914 \$905 VSS sg13_lv_nmos W=2.96 L=0.13
* device instance $224 r0 *1 455.515,602.98 sg13_lv_nmos
M$224 VSS \$905 \$906 VSS sg13_lv_nmos W=2.96 L=0.13
* device instance $228 r0 *1 458.395,602.98 sg13_lv_nmos
M$228 VSS \$906 \$907 VSS sg13_lv_nmos W=2.96 L=0.13
* device instance $232 r0 *1 461.275,602.98 sg13_lv_nmos
M$232 VSS \$907 \$908 VSS sg13_lv_nmos W=2.96 L=0.13
* device instance $236 r0 *1 464.155,602.98 sg13_lv_nmos
M$236 VSS \$908 \$909 VSS sg13_lv_nmos W=2.96 L=0.13
* device instance $240 r0 *1 467.035,602.98 sg13_lv_nmos
M$240 VSS \$909 \$910 VSS sg13_lv_nmos W=2.96 L=0.13
* device instance $244 r0 *1 469.99,602.955 sg13_lv_nmos
M$244 \$911 \$910 VSS VSS sg13_lv_nmos W=1.44 L=0.13
* device instance $246 r0 *1 471.02,602.955 sg13_lv_nmos
M$246 \$911 \$908 \$915 VSS sg13_lv_nmos W=1.44 L=0.13
* device instance $248 r0 *1 472.795,602.98 sg13_lv_nmos
M$248 VSS \$915 \$912 VSS sg13_lv_nmos W=2.96 L=0.13
* device instance $252 r0 *1 475.615,602.98 sg13_lv_nmos
M$252 VSS \$912 \$913 VSS sg13_lv_nmos W=5.920000000000001 L=0.13
* device instance $260 r0 *1 433.27,616.415 sg13_lv_nmos
M$260 VSS \$913 \$975 VSS sg13_lv_nmos W=0.74 L=0.13
* device instance $261 r0 *1 434.36,616.51 sg13_lv_nmos
M$261 VSS \$946 \$979 VSS sg13_lv_nmos W=0.55 L=0.12999999999999998
* device instance $262 r0 *1 435.21,616.415 sg13_lv_nmos
M$262 VSS \$866 \$988 VSS sg13_lv_nmos W=0.74 L=0.13
* device instance $263 r0 *1 435.52,616.415 sg13_lv_nmos
M$263 \$988 \$979 \$976 VSS sg13_lv_nmos W=0.74 L=0.13
* device instance $264 r0 *1 436.85,616.575 sg13_lv_nmos
M$264 \$984 \$866 \$996 VSS sg13_lv_nmos W=0.64 L=0.13
* device instance $265 r0 *1 437.36,616.575 sg13_lv_nmos
M$265 VSS \$946 \$996 VSS sg13_lv_nmos W=0.64 L=0.13
* device instance $266 r0 *1 437.87,616.525 sg13_lv_nmos
M$266 VSS \$984 \$967 VSS sg13_lv_nmos W=0.74 L=0.13
* device instance $267 r0 *1 441.655,618.475 sg13_lv_nmos
M$267 VLO \$967 \$1015 VSS sg13_lv_nmos W=0.5 L=0.13
* device instance $268 r0 *1 454.37,616.04 sg13_lv_nmos
M$268 \$968 \$909 \$993 VSS sg13_lv_nmos W=2.0 L=0.13
* device instance $269 r0 *1 454.37,616.55 sg13_lv_nmos
M$269 \$993 \$866 \$1071 VSS sg13_lv_nmos W=2.0 L=0.13
* device instance $270 r0 *1 454.37,617.83 sg13_lv_nmos
M$270 \$1105 \$913 \$1071 VSS sg13_lv_nmos W=2.0 L=0.13
* device instance $271 r0 *1 454.37,618.34 sg13_lv_nmos
M$271 \$1071 \$181 \$1016 VSS sg13_lv_nmos W=2.0 L=0.13
* device instance $272 r0 *1 469.325,616.415 sg13_lv_nmos
M$272 VSS \$866 \$977 VSS sg13_lv_nmos W=0.74 L=0.13
* device instance $273 r0 *1 470.415,616.51 sg13_lv_nmos
M$273 VSS \$947 \$980 VSS sg13_lv_nmos W=0.55 L=0.12999999999999998
* device instance $274 r0 *1 471.265,616.415 sg13_lv_nmos
M$274 VSS \$913 \$991 VSS sg13_lv_nmos W=0.74 L=0.13
* device instance $275 r0 *1 471.575,616.415 sg13_lv_nmos
M$275 \$991 \$980 \$978 VSS sg13_lv_nmos W=0.74 L=0.13
* device instance $276 r0 *1 472.905,616.575 sg13_lv_nmos
M$276 \$985 \$913 \$1004 VSS sg13_lv_nmos W=0.64 L=0.13
* device instance $277 r0 *1 473.415,616.575 sg13_lv_nmos
M$277 VSS \$947 \$1004 VSS sg13_lv_nmos W=0.64 L=0.13
* device instance $278 r0 *1 473.925,616.525 sg13_lv_nmos
M$278 VSS \$985 \$969 VSS sg13_lv_nmos W=0.74 L=0.13
* device instance $279 r0 *1 477.71,618.475 sg13_lv_nmos
M$279 VLO \$969 \$1017 VSS sg13_lv_nmos W=0.5 L=0.13
* device instance $280 r0 *1 490.425,617.83 sg13_lv_nmos
M$280 \$1106 \$866 \$1072 VSS sg13_lv_nmos W=2.0 L=0.13
* device instance $281 r0 *1 490.425,618.34 sg13_lv_nmos
M$281 \$1072 \$181 \$1018 VSS sg13_lv_nmos W=2.0 L=0.13
* device instance $282 r0 *1 490.425,616.04 sg13_lv_nmos
M$282 \$970 \$862 \$994 VSS sg13_lv_nmos W=2.0 L=0.13
* device instance $283 r0 *1 490.425,616.55 sg13_lv_nmos
M$283 \$994 \$913 \$1072 VSS sg13_lv_nmos W=2.0 L=0.13
* device instance $284 r0 *1 505.425,616.53 sg13_lv_nmos
M$284 VSS \$913 \$981 VSS sg13_lv_nmos W=0.74 L=0.13
* device instance $285 r0 *1 520.915,619.83 sg13_lv_nmos
M$285 \$1037 \$1047 \$1049 VSS sg13_lv_nmos W=0.42 L=0.13
* device instance $286 r0 *1 521.225,619.83 sg13_lv_nmos
M$286 \$1049 \$1033 VSS VSS sg13_lv_nmos W=0.42 L=0.13
* device instance $287 r0 *1 521.805,620.215 sg13_lv_nmos
M$287 VSS \$1062 \$1038 VSS sg13_lv_nmos W=0.74 L=0.13
* device instance $288 r0 *1 522.895,619.895 sg13_lv_nmos
M$288 VSS \$1033 \$1050 VSS sg13_lv_nmos W=0.42 L=0.13
* device instance $289 r0 *1 523.205,619.895 sg13_lv_nmos
M$289 \$1050 \$1038 \$1046 VSS sg13_lv_nmos W=0.42 L=0.13
* device instance $290 r0 *1 528.06,620.215 sg13_lv_nmos
M$290 \$1048 \$1039 \$1040 VSS sg13_lv_nmos W=0.42 L=0.13
* device instance $291 r0 *1 528.595,620.055 sg13_lv_nmos
M$291 \$1038 \$1073 \$1048 VSS sg13_lv_nmos W=0.74 L=0.13
* device instance $292 r0 *1 529.645,619.83 sg13_lv_nmos
M$292 \$1040 \$1041 VSS VSS sg13_lv_nmos W=0.42 L=0.13
* device instance $293 r0 *1 530.155,619.83 sg13_lv_nmos
M$293 VSS \$1033 \$1052 VSS sg13_lv_nmos W=0.42 L=0.13
* device instance $294 r0 *1 530.465,619.83 sg13_lv_nmos
M$294 \$1052 \$1048 \$1041 VSS sg13_lv_nmos W=0.42 L=0.13
* device instance $295 r0 *1 532.505,619.94 sg13_lv_nmos
M$295 VSS \$1048 \$1043 VSS sg13_lv_nmos W=0.64 L=0.13
* device instance $296 r0 *1 531.485,619.99 sg13_lv_nmos
M$296 VSS \$1048 \$1042 VSS sg13_lv_nmos W=1.48 L=0.13
* device instance $298 r0 *1 533.525,619.99 sg13_lv_nmos
M$298 VSS \$1043 \$946 VSS sg13_lv_nmos W=1.48 L=0.13
* device instance $300 r0 *1 535.21,620.01 sg13_lv_nmos
M$300 VSS \$946 \$1010 VSS sg13_lv_nmos W=1.48 L=0.13
* device instance $302 r0 *1 537,620.005 sg13_lv_nmos
M$302 \$1033 \$181 VSS VSS sg13_lv_nmos W=0.74 L=0.13
* device instance $303 r0 *1 433.495,621.675 sg13_lv_nmos
M$303 \$1344 \$913 \$1015 VSS sg13_lv_nmos W=2.0 L=0.13
* device instance $304 r0 *1 456.64,623.065 sg13_lv_nmos
M$304 VSS \$1105 \$1016 VSS sg13_lv_nmos W=2.5 L=1.5
* device instance $305 r0 *1 462.64,623.065 sg13_lv_nmos
M$305 VSS \$968 \$968 VSS sg13_lv_nmos W=2.5 L=1.5
* device instance $306 r0 *1 469.55,621.675 sg13_lv_nmos
M$306 \$1016 \$866 \$1017 VSS sg13_lv_nmos W=2.0 L=0.13
* device instance $307 r0 *1 492.695,623.065 sg13_lv_nmos
M$307 VSS \$1106 \$1018 VSS sg13_lv_nmos W=2.5 L=1.5
* device instance $308 r0 *1 498.695,623.065 sg13_lv_nmos
M$308 VSS \$970 \$970 VSS sg13_lv_nmos W=2.5 L=1.5
* device instance $309 r0 *1 505.05,623.5 sg13_lv_nmos
M$309 \$1061 \$913 \$1018 VSS sg13_lv_nmos W=2.0 L=0.13
* device instance $310 r0 *1 509.96,626.51 sg13_lv_nmos
M$310 VSS \$970 \$1115 VSS sg13_lv_nmos W=2.0 L=1.0
* device instance $311 r0 *1 514.885,626.51 sg13_lv_nmos
M$311 VSS \$1061 \$1116 VSS sg13_lv_nmos W=2.0 L=1.0
* device instance $312 r0 *1 523.98,620.62 sg13_lv_nmos
M$312 \$1037 \$1039 \$1062 VSS sg13_lv_nmos W=0.42 L=0.13
* device instance $313 r0 *1 524.49,620.62 sg13_lv_nmos
M$313 \$1062 \$1073 \$1046 VSS sg13_lv_nmos W=0.42 L=0.13
* device instance $314 r0 *1 525.75,620.095 sg13_lv_nmos
M$314 VSS \$1039 \$1073 VSS sg13_lv_nmos W=0.74 L=0.13
* device instance $315 r0 *1 526.85,620.095 sg13_lv_nmos
M$315 VSS \$913 \$1039 VSS sg13_lv_nmos W=0.74 L=0.13
* device instance $316 r0 *1 532.795,625.47 sg13_lv_nmos
M$316 VSS \$1103 \$947 VSS sg13_lv_nmos W=1.48 L=0.13
* device instance $318 r0 *1 532.845,626.49 sg13_lv_nmos
M$318 VSS \$1047 \$1103 VSS sg13_lv_nmos W=0.64 L=0.13
* device instance $319 r0 *1 522.75,627.29 sg13_lv_nmos
M$319 VSS \$1134 \$1117 VSS sg13_lv_nmos W=2.0 L=0.13
* device instance $320 r0 *1 529.69,627.28 sg13_lv_nmos
M$320 VSS \$1133 \$1118 VSS sg13_lv_nmos W=2.0 L=0.13
* device instance $321 r0 *1 509.855,627.99 sg13_lv_nmos
M$321 \$1115 \$866 \$1123 VSS sg13_lv_nmos W=2.0 L=0.13
* device instance $322 r0 *1 514.795,627.99 sg13_lv_nmos
M$322 \$1116 \$866 \$1124 VSS sg13_lv_nmos W=2.0 L=0.13
* device instance $323 r0 *1 523.03,628.795 sg13_lv_nmos
M$323 \$1117 \$1047 \$1129 VSS sg13_lv_nmos W=2.0 L=0.13
* device instance $324 r0 *1 529.34,628.76 sg13_lv_nmos
M$324 \$1118 \$1129 \$1047 VSS sg13_lv_nmos W=2.0 L=0.13
* device instance $325 r0 *1 509.835,629.77 sg13_lv_nmos
M$325 \$1123 \$1134 \$1133 VSS sg13_lv_nmos W=2.0 L=0.13
* device instance $326 r0 *1 514.62,629.77 sg13_lv_nmos
M$326 \$1124 \$1133 \$1134 VSS sg13_lv_nmos W=2.0 L=0.13
* device instance $327 r0 *1 1060.995,797.48 sg13_lv_nmos
M$327 \$1292 \$1010 VSS VSS sg13_lv_nmos W=2.75 L=0.13
* device instance $328 r0 *1 1060.995,800.99 sg13_lv_nmos
M$328 \$1319 \$1010 VSS VSS sg13_lv_nmos W=2.75 L=0.13
* device instance $329 r0 *1 633.21,835.705 sg13_lv_nmos
M$329 VSS \$1380 \$1380 VSS sg13_lv_nmos W=2.5 L=1.5
* device instance $331 r0 *1 630.06,842.755 sg13_lv_nmos
M$331 \$1391 \$1434 \$1384 VSS sg13_lv_nmos W=2.0 L=0.13
* device instance $333 r0 *1 622.76,843.455 sg13_lv_nmos
M$333 VSS \$1380 \$1396 VSS sg13_lv_nmos W=2.0 L=1.0
* device instance $335 r0 *1 626.34,843.455 sg13_lv_nmos
M$335 VSS \$1384 \$1397 VSS sg13_lv_nmos W=2.0 L=1.0
* device instance $337 r0 *1 623.505,845.055 sg13_lv_nmos
M$337 \$1396 \$1457 \$1402 VSS sg13_lv_nmos W=2.0 L=0.13
* device instance $339 r0 *1 626.465,845.055 sg13_lv_nmos
M$339 \$1397 \$1457 \$1403 VSS sg13_lv_nmos W=2.0 L=0.13
* device instance $341 r0 *1 632.73,845.055 sg13_lv_nmos
M$341 VSS \$1412 \$1404 VSS sg13_lv_nmos W=2.0 L=0.13
* device instance $343 r0 *1 635.69,845.055 sg13_lv_nmos
M$343 VSS \$1413 \$1405 VSS sg13_lv_nmos W=2.0 L=0.13
* device instance $345 r0 *1 592.87,846.075 sg13_lv_nmos
M$345 VSS \$1386 \$1406 VSS sg13_lv_nmos W=2.5 L=1.5
* device instance $347 r0 *1 614.46,846.075 sg13_lv_nmos
M$347 VSS \$1387 \$1391 VSS sg13_lv_nmos W=2.5 L=1.5
* device instance $349 r0 *1 623.505,846.655 sg13_lv_nmos
M$349 \$1402 \$1412 \$1413 VSS sg13_lv_nmos W=2.0 L=0.13
* device instance $351 r0 *1 626.465,846.655 sg13_lv_nmos
M$351 \$1403 \$1413 \$1412 VSS sg13_lv_nmos W=2.0 L=0.13
* device instance $353 r0 *1 632.73,846.655 sg13_lv_nmos
M$353 \$1404 \$1414 \$1419 VSS sg13_lv_nmos W=2.0 L=0.13
* device instance $355 r0 *1 635.69,846.655 sg13_lv_nmos
M$355 \$1405 \$1419 \$1414 VSS sg13_lv_nmos W=2.0 L=0.13
* device instance $357 r0 *1 585.345,846.95 sg13_lv_nmos
M$357 \$1417 \$1434 \$1854 VSS sg13_lv_nmos W=2.0 L=0.13
* device instance $359 r0 *1 586.14,851.955 sg13_lv_nmos
M$359 VLO \$1504 \$1417 VSS sg13_lv_nmos W=0.5 L=0.13
* device instance $360 r0 *1 588.475,849.383 sg13_lv_nmos
M$360 \$1382 \$1457 \$1420 VSS sg13_lv_nmos W=2.0 L=0.13
* device instance $361 r0 *1 588.475,852.473 sg13_lv_nmos
M$361 \$1382 \$1434 \$1386 VSS sg13_lv_nmos W=2.0 L=0.13
* device instance $362 r0 *1 589.55,849.383 sg13_lv_nmos
M$362 \$1420 \$1675 \$1380 VSS sg13_lv_nmos W=2.0 L=0.13
* device instance $363 r0 *1 606.935,846.95 sg13_lv_nmos
M$363 \$1418 \$1457 \$1406 VSS sg13_lv_nmos W=2.0 L=0.13
* device instance $365 r0 *1 607.73,851.955 sg13_lv_nmos
M$365 VLO \$1505 \$1418 VSS sg13_lv_nmos W=0.5 L=0.13
* device instance $366 r0 *1 610.065,849.383 sg13_lv_nmos
M$366 \$1383 \$1434 \$1421 VSS sg13_lv_nmos W=2.0 L=0.13
* device instance $367 r0 *1 610.065,852.473 sg13_lv_nmos
M$367 \$1383 \$1457 \$1387 VSS sg13_lv_nmos W=2.0 L=0.13
* device instance $368 r0 *1 611.14,849.383 sg13_lv_nmos
M$368 \$1421 \$1458 \$1380 VSS sg13_lv_nmos W=2.0 L=0.13
* device instance $369 r0 *1 623.635,852.165 sg13_lv_nmos
M$369 \$1490 \$1414 \$1523 VSS sg13_lv_nmos W=0.42 L=0.13
* device instance $370 r0 *1 623.945,852.165 sg13_lv_nmos
M$370 \$1523 \$1489 VSS VSS sg13_lv_nmos W=0.42 L=0.13
* device instance $371 r0 *1 624.525,852.55 sg13_lv_nmos
M$371 VSS \$1535 \$1491 VSS sg13_lv_nmos W=0.74 L=0.13
* device instance $372 r0 *1 632.365,852.165 sg13_lv_nmos
M$372 \$1494 \$1495 VSS VSS sg13_lv_nmos W=0.42 L=0.13
* device instance $373 r0 *1 632.875,852.165 sg13_lv_nmos
M$373 VSS \$1489 \$1528 VSS sg13_lv_nmos W=0.42 L=0.13
* device instance $374 r0 *1 633.185,852.165 sg13_lv_nmos
M$374 \$1528 \$1507 \$1495 VSS sg13_lv_nmos W=0.42 L=0.13
* device instance $375 r0 *1 635.225,852.275 sg13_lv_nmos
M$375 VSS \$1507 \$1497 VSS sg13_lv_nmos W=0.64 L=0.13
* device instance $376 r0 *1 634.205,852.325 sg13_lv_nmos
M$376 VSS \$1507 \$1496 VSS sg13_lv_nmos W=1.48 L=0.13
* device instance $378 r0 *1 636.245,852.325 sg13_lv_nmos
M$378 VSS \$1497 \$1590 VSS sg13_lv_nmos W=1.48 L=0.13
* device instance $380 r0 *1 620.94,852.345 sg13_lv_nmos
M$380 VSS \$1434 \$1422 VSS sg13_lv_nmos W=0.74 L=0.13
* device instance $381 r0 *1 622.38,852.345 sg13_lv_nmos
M$381 VSS \$181 \$1489 VSS sg13_lv_nmos W=0.74 L=0.13
* device instance $382 r0 *1 625.615,852.23 sg13_lv_nmos
M$382 VSS \$1489 \$1524 VSS sg13_lv_nmos W=0.42 L=0.13
* device instance $383 r0 *1 625.925,852.23 sg13_lv_nmos
M$383 \$1524 \$1491 \$1492 VSS sg13_lv_nmos W=0.42 L=0.13
* device instance $384 r0 *1 626.7,852.955 sg13_lv_nmos
M$384 \$1490 \$1493 \$1535 VSS sg13_lv_nmos W=0.42 L=0.13
* device instance $385 r0 *1 627.21,852.955 sg13_lv_nmos
M$385 \$1535 \$1506 \$1492 VSS sg13_lv_nmos W=0.42 L=0.13
* device instance $386 r0 *1 628.47,852.43 sg13_lv_nmos
M$386 VSS \$1493 \$1506 VSS sg13_lv_nmos W=0.74 L=0.13
* device instance $387 r0 *1 629.57,852.43 sg13_lv_nmos
M$387 VSS \$1434 \$1493 VSS sg13_lv_nmos W=0.74 L=0.13
* device instance $388 r0 *1 630.78,852.55 sg13_lv_nmos
M$388 \$1507 \$1493 \$1494 VSS sg13_lv_nmos W=0.42 L=0.13
* device instance $389 r0 *1 631.315,852.39 sg13_lv_nmos
M$389 \$1491 \$1506 \$1507 VSS sg13_lv_nmos W=0.74 L=0.13
* device instance $390 r0 *1 637.86,852.395 sg13_lv_nmos
M$390 VSS \$1414 \$1498 VSS sg13_lv_nmos W=0.64 L=0.13
* device instance $391 r0 *1 638.37,852.345 sg13_lv_nmos
M$391 VSS \$1498 \$1591 VSS sg13_lv_nmos W=1.48 L=0.13
* device instance $393 r0 *1 640.4,852.345 sg13_lv_nmos
M$393 VSS \$1590 \$1499 VSS sg13_lv_nmos W=1.48 L=0.13
* device instance $395 r0 *1 594.145,854.805 sg13_lv_nmos
M$395 \$1382 \$181 \$1406 VSS sg13_lv_nmos W=2.0 L=0.13
* device instance $399 r0 *1 615.735,854.805 sg13_lv_nmos
M$399 \$1383 \$181 \$1391 VSS sg13_lv_nmos W=2.0 L=0.13
* device instance $403 r0 *1 617.465,863.425 sg13_lv_nmos
M$403 \$1592 \$1626 VSS VSS sg13_lv_nmos W=1.44 L=0.13
* device instance $405 r0 *1 618.495,863.425 sg13_lv_nmos
M$405 \$1592 \$1627 \$1607 VSS sg13_lv_nmos W=1.44 L=0.13
* device instance $407 r0 *1 640.7,863.425 sg13_lv_nmos
M$407 \$1598 \$1597 VSS VSS sg13_lv_nmos W=1.44 L=0.13
* device instance $409 r0 *1 641.73,863.425 sg13_lv_nmos
M$409 \$1598 \$1596 \$1608 VSS sg13_lv_nmos W=1.44 L=0.13
* device instance $411 r0 *1 623.374,863.452 sg13_lv_nmos
M$411 VSS \$1593 \$1594 VSS sg13_lv_nmos W=2.96 L=0.13
* device instance $415 r0 *1 626.254,863.452 sg13_lv_nmos
M$415 VSS \$1594 \$1595 VSS sg13_lv_nmos W=2.96 L=0.13
* device instance $419 r0 *1 629.134,863.452 sg13_lv_nmos
M$419 VSS \$1595 \$1596 VSS sg13_lv_nmos W=2.96 L=0.13
* device instance $423 r0 *1 632.714,863.452 sg13_lv_nmos
M$423 VSS \$1596 \$1458 VSS sg13_lv_nmos W=2.96 L=0.13
* device instance $427 r0 *1 636.294,863.452 sg13_lv_nmos
M$427 VSS \$1458 \$1597 VSS sg13_lv_nmos W=2.96 L=0.13
* device instance $431 r0 *1 643.75,863.45 sg13_lv_nmos
M$431 VSS \$1608 \$1599 VSS sg13_lv_nmos W=2.96 L=0.13
* device instance $435 r0 *1 646.57,863.452 sg13_lv_nmos
M$435 VSS \$1599 \$1457 VSS sg13_lv_nmos W=5.920000000000001 L=0.13
* device instance $443 r0 *1 577.495,864.355 sg13_lv_nmos
M$443 \$1622 \$1457 \$1637 VSS sg13_lv_nmos W=0.64 L=0.13
* device instance $444 r0 *1 578.005,864.355 sg13_lv_nmos
M$444 VSS \$1590 \$1637 VSS sg13_lv_nmos W=0.64 L=0.13
* device instance $445 r0 *1 578.515,864.305 sg13_lv_nmos
M$445 VSS \$1622 \$1504 VSS sg13_lv_nmos W=0.74 L=0.13
* device instance $446 r0 *1 579.805,864.29 sg13_lv_nmos
M$446 VSS \$1590 \$1623 VSS sg13_lv_nmos W=0.55 L=0.12999999999999998
* device instance $447 r0 *1 580.655,864.195 sg13_lv_nmos
M$447 VSS \$1457 \$1635 VSS sg13_lv_nmos W=0.74 L=0.13
* device instance $448 r0 *1 580.965,864.195 sg13_lv_nmos
M$448 \$1635 \$1623 \$1533 VSS sg13_lv_nmos W=0.74 L=0.13
* device instance $449 r0 *1 582.555,864.195 sg13_lv_nmos
M$449 VSS \$1434 \$1473 VSS sg13_lv_nmos W=0.74 L=0.13
* device instance $450 r0 *1 599.085,864.355 sg13_lv_nmos
M$450 \$1624 \$1434 \$1632 VSS sg13_lv_nmos W=0.64 L=0.13
* device instance $451 r0 *1 599.595,864.355 sg13_lv_nmos
M$451 VSS \$1591 \$1632 VSS sg13_lv_nmos W=0.64 L=0.13
* device instance $452 r0 *1 600.105,864.305 sg13_lv_nmos
M$452 VSS \$1624 \$1505 VSS sg13_lv_nmos W=0.74 L=0.13
* device instance $453 r0 *1 601.395,864.29 sg13_lv_nmos
M$453 VSS \$1591 \$1625 VSS sg13_lv_nmos W=0.55 L=0.12999999999999998
* device instance $454 r0 *1 602.245,864.195 sg13_lv_nmos
M$454 VSS \$1434 \$1629 VSS sg13_lv_nmos W=0.74 L=0.13
* device instance $455 r0 *1 602.555,864.195 sg13_lv_nmos
M$455 \$1629 \$1625 \$1534 VSS sg13_lv_nmos W=0.74 L=0.13
* device instance $456 r0 *1 604.145,864.195 sg13_lv_nmos
M$456 VSS \$1457 \$1474 VSS sg13_lv_nmos W=0.74 L=0.13
* device instance $457 r0 *1 617.465,869.102 sg13_lv_nmos