* Extracted by KLayout with SG13G2 LVS runset on : 09/05/2024 03:08

* cell UHEE628_S2024
* pin PAD,RES
* pin CK4,PAD
* pin CK5,PAD
* pin CK6,PAD
* pin IOVDD
* pin AVDD
* pin CORE
* pin CORE
* pin CORE
* pin CORE
* pin IN6,PAD
* pin OUT6
* pin VDD
* pin dout
* pin CORE
* pin IN5,PAD
* pin OUT5
* pin CORE
* pin IN4,PAD
* pin OUT4
* pin CORE
* pin PAD,VLO
* pin CORE
* pin PAD,VHI
* pin CORE
* pin IN3,PAD
* pin OUT3
* pin CORE
* pin PAD,VLDO
* pin IN2,PAD
* pin OUT2
* pin CORE
* pin CORE
* pin IN1,PAD
* pin OUT1
* pin CORE
* pin PAD,VREF
* pin CORE
* pin CORE
* pin CORE
* pin CORE
* pin CK3,PAD
* pin CK2,PAD
* pin CK1,PAD
* pin VSS
.SUBCKT UHEE628_S2024 PAD|RES CK4|PAD CK5|PAD CK6|PAD IOVDD AVDD CORE CORE$1
+ CORE$2 CORE$3 IN6|PAD OUT6 VDD dout CORE$4 IN5|PAD OUT5 CORE$5 IN4|PAD OUT4
+ CORE$6 PAD|VLO CORE$7 PAD|VHI CORE$8 IN3|PAD OUT3 CORE$9 PAD|VLDO IN2|PAD
+ OUT2 CORE$10 CORE$11 IN1|PAD OUT1 CORE$12 PAD|VREF CORE$13 CORE$14 CORE$15
+ CORE$16 CK3|PAD CK2|PAD CK1|PAD VSS
* device instance $1 r0 *1 500.255,239.005 sg13_lv_nmos
M$1 \$172 \$177 VSS VSS sg13_lv_nmos W=2.75 L=0.13
* device instance $2 r0 *1 700.255,239.005 sg13_lv_nmos
M$2 \$173 \$178 VSS VSS sg13_lv_nmos W=2.75 L=0.13
* device instance $3 r0 *1 800.255,239.005 sg13_lv_nmos
M$3 \$174 \$179 VSS VSS sg13_lv_nmos W=2.75 L=0.13
* device instance $4 r0 *1 900.255,239.005 sg13_lv_nmos
M$4 \$175 \$180 VSS VSS sg13_lv_nmos W=2.75 L=0.13
* device instance $5 r0 *1 1060.995,297.48 sg13_lv_nmos
M$5 \$229 dout VSS VSS sg13_lv_nmos W=2.75 L=0.13
* device instance $6 r0 *1 431.875,301.115 sg13_lv_nmos
M$6 \$260 \$281 VSS VSS sg13_lv_nmos W=1.44 L=0.13
* device instance $8 r0 *1 432.905,301.115 sg13_lv_nmos
M$8 \$260 \$373 \$268 VSS sg13_lv_nmos W=1.44 L=0.13
* device instance $10 r0 *1 434.755,301.115 sg13_lv_nmos
M$10 \$261 \$282 VSS VSS sg13_lv_nmos W=1.44 L=0.13
* device instance $12 r0 *1 435.785,301.115 sg13_lv_nmos
M$12 \$261 \$329 \$262 VSS sg13_lv_nmos W=1.44 L=0.13
* device instance $14 r0 *1 437.56,301.14 sg13_lv_nmos
M$14 VSS \$268 \$263 VSS sg13_lv_nmos W=2.96 L=0.13
* device instance $18 r0 *1 440.44,301.14 sg13_lv_nmos
M$18 VSS \$262 \$264 VSS sg13_lv_nmos W=2.96 L=0.13
* device instance $22 r0 *1 443.26,301.14 sg13_lv_nmos
M$22 VSS \$263 \$265 VSS sg13_lv_nmos W=5.920000000000001 L=0.13
* device instance $30 r0 *1 448.06,301.14 sg13_lv_nmos
M$30 VSS \$264 \$266 VSS sg13_lv_nmos W=5.920000000000001 L=0.13
* device instance $38 r0 *1 431.085,305.825 sg13_lv_nmos
M$38 VSS \$175 \$323 VSS sg13_lv_nmos W=1.48 L=0.13
* device instance $40 r0 *1 433.06,305.8 sg13_lv_nmos
M$40 \$324 \$323 VSS VSS sg13_lv_nmos W=1.44 L=0.13
* device instance $42 r0 *1 434.09,305.8 sg13_lv_nmos
M$42 \$324 \$281 \$325 VSS sg13_lv_nmos W=1.44 L=0.13
* device instance $44 r0 *1 435.865,305.825 sg13_lv_nmos
M$44 VSS \$325 \$326 VSS sg13_lv_nmos W=2.96 L=0.13
* device instance $48 r0 *1 438.745,305.825 sg13_lv_nmos
M$48 VSS \$326 \$327 VSS sg13_lv_nmos W=2.96 L=0.13
* device instance $52 r0 *1 441.625,305.825 sg13_lv_nmos
M$52 VSS \$327 \$328 VSS sg13_lv_nmos W=2.96 L=0.13
* device instance $56 r0 *1 444.505,305.825 sg13_lv_nmos
M$56 VSS \$328 \$329 VSS sg13_lv_nmos W=2.96 L=0.13
* device instance $60 r0 *1 447.385,305.825 sg13_lv_nmos
M$60 VSS \$329 \$330 VSS sg13_lv_nmos W=2.96 L=0.13
* device instance $64 r0 *1 450.265,305.825 sg13_lv_nmos
M$64 VSS \$330 \$282 VSS sg13_lv_nmos W=2.96 L=0.13
* device instance $68 r0 *1 456.79,303.21 sg13_lv_nmos
M$68 VSS \$266 \$290 VSS sg13_lv_nmos W=0.74 L=0.13
* device instance $69 r0 *1 457.97,303.37 sg13_lv_nmos
M$69 \$293 \$265 \$305 VSS sg13_lv_nmos W=0.64 L=0.13
* device instance $70 r0 *1 458.48,303.37 sg13_lv_nmos
M$70 VSS \$246 \$305 VSS sg13_lv_nmos W=0.64 L=0.13
* device instance $71 r0 *1 458.99,303.32 sg13_lv_nmos
M$71 VSS \$293 \$294 VSS sg13_lv_nmos W=0.74 L=0.13
* device instance $72 r0 *1 460.28,303.305 sg13_lv_nmos
M$72 VSS \$246 \$295 VSS sg13_lv_nmos W=0.55 L=0.12999999999999998
* device instance $73 r0 *1 461.13,303.21 sg13_lv_nmos
M$73 VSS \$265 \$307 VSS sg13_lv_nmos W=0.74 L=0.13
* device instance $74 r0 *1 461.44,303.21 sg13_lv_nmos
M$74 \$307 \$295 \$291 VSS sg13_lv_nmos W=0.74 L=0.13
* device instance $75 r0 *1 465.4,304.425 sg13_lv_nmos
M$75 \$296 \$330 \$285 VSS sg13_lv_nmos W=2.0 L=0.13
* device instance $76 r0 *1 465.91,304.425 sg13_lv_nmos
M$76 \$285 \$265 \$297 VSS sg13_lv_nmos W=2.0 L=0.13
* device instance $77 r0 *1 469.22,304.415 sg13_lv_nmos
M$77 \$270 \$266 \$297 VSS sg13_lv_nmos W=2.0 L=0.13
* device instance $78 r0 *1 469.73,304.415 sg13_lv_nmos
M$78 \$297 \$172 \$269 VSS sg13_lv_nmos W=2.0 L=0.13
* device instance $79 r0 *1 1060.995,300.99 sg13_lv_nmos
M$79 \$259 dout VSS VSS sg13_lv_nmos W=2.75 L=0.13
* device instance $80 r0 *1 431.05,310.465 sg13_lv_nmos
M$80 VSS \$323 \$368 VSS sg13_lv_nmos W=1.48 L=0.13
* device instance $82 r0 *1 433.025,310.44 sg13_lv_nmos
M$82 \$364 \$282 VSS VSS sg13_lv_nmos W=1.44 L=0.13
* device instance $84 r0 *1 434.055,310.44 sg13_lv_nmos
M$84 \$364 \$368 \$369 VSS sg13_lv_nmos W=1.44 L=0.13
* device instance $86 r0 *1 435.83,310.475 sg13_lv_nmos
M$86 VSS \$369 \$370 VSS sg13_lv_nmos W=2.96 L=0.13
* device instance $90 r0 *1 438.71,310.475 sg13_lv_nmos
M$90 VSS \$370 \$371 VSS sg13_lv_nmos W=2.96 L=0.13
* device instance $94 r0 *1 441.59,310.475 sg13_lv_nmos
M$94 VSS \$371 \$372 VSS sg13_lv_nmos W=2.96 L=0.13
* device instance $98 r0 *1 444.47,310.475 sg13_lv_nmos
M$98 VSS \$372 \$373 VSS sg13_lv_nmos W=2.96 L=0.13
* device instance $102 r0 *1 447.35,310.475 sg13_lv_nmos
M$102 VSS \$373 \$374 VSS sg13_lv_nmos W=2.96 L=0.13
* device instance $106 r0 *1 450.23,310.475 sg13_lv_nmos
M$106 VSS \$374 \$281 VSS sg13_lv_nmos W=2.96 L=0.13
* device instance $110 r0 *1 457.825,307.85 sg13_lv_nmos
M$110 \$345 \$294 PAD|VLO VSS sg13_lv_nmos W=0.5 L=0.13
* device instance $111 r0 *1 460.21,307.855 sg13_lv_nmos
M$111 \$345 \$266 \$349 VSS sg13_lv_nmos W=2.0 L=0.13
* device instance $112 r0 *1 465.395,308.555 sg13_lv_nmos
M$112 VSS \$296 \$296 VSS sg13_lv_nmos W=2.5 L=1.5
* device instance $113 r0 *1 469.615,308.555 sg13_lv_nmos
M$113 VSS \$270 \$269 VSS sg13_lv_nmos W=2.5 L=1.5
* device instance $114 r0 *1 431.685,321.635 sg13_lv_nmos
M$114 VSS \$265 \$441 VSS sg13_lv_nmos W=0.74 L=0.13
* device instance $115 r0 *1 432.865,321.795 sg13_lv_nmos
M$115 \$445 \$266 \$450 VSS sg13_lv_nmos W=0.64 L=0.13
* device instance $116 r0 *1 433.375,321.795 sg13_lv_nmos
M$116 VSS \$437 \$450 VSS sg13_lv_nmos W=0.64 L=0.13
* device instance $117 r0 *1 433.885,321.745 sg13_lv_nmos
M$117 VSS \$445 \$442 VSS sg13_lv_nmos W=0.74 L=0.13
* device instance $118 r0 *1 435.175,321.73 sg13_lv_nmos
M$118 VSS \$437 \$446 VSS sg13_lv_nmos W=0.55 L=0.12999999999999998
* device instance $119 r0 *1 436.025,321.635 sg13_lv_nmos
M$119 VSS \$266 \$453 VSS sg13_lv_nmos W=0.74 L=0.13
* device instance $120 r0 *1 436.335,321.635 sg13_lv_nmos
M$120 \$453 \$446 \$443 VSS sg13_lv_nmos W=0.74 L=0.13
* device instance $121 r0 *1 440.295,322.85 sg13_lv_nmos
M$121 \$447 \$374 \$439 VSS sg13_lv_nmos W=2.0 L=0.13
* device instance $122 r0 *1 440.805,322.85 sg13_lv_nmos
M$122 \$439 \$266 \$448 VSS sg13_lv_nmos W=2.0 L=0.13
* device instance $123 r0 *1 444.115,322.84 sg13_lv_nmos
M$123 \$438 \$265 \$448 VSS sg13_lv_nmos W=2.0 L=0.13
* device instance $124 r0 *1 444.625,322.84 sg13_lv_nmos
M$124 \$448 \$172 \$349 VSS sg13_lv_nmos W=2.0 L=0.13
* device instance $125 r0 *1 451.1,325.71 sg13_lv_nmos
M$125 VSS \$265 \$466 VSS sg13_lv_nmos W=0.74 L=0.13
* device instance $126 r0 *1 452.54,325.71 sg13_lv_nmos
M$126 VSS \$172 \$467 VSS sg13_lv_nmos W=0.74 L=0.13
* device instance $127 r0 *1 453.94,325.71 sg13_lv_nmos
M$127 VSS \$482 \$246 VSS sg13_lv_nmos W=1.48 L=0.13
* device instance $129 r0 *1 454.96,325.76 sg13_lv_nmos
M$129 VSS \$545 \$482 VSS sg13_lv_nmos W=0.64 L=0.13
* device instance $130 r0 *1 456.195,325.53 sg13_lv_nmos
M$130 \$468 \$545 \$480 VSS sg13_lv_nmos W=0.42 L=0.13
* device instance $131 r0 *1 456.505,325.53 sg13_lv_nmos
M$131 \$480 \$467 VSS VSS sg13_lv_nmos W=0.42 L=0.13
* device instance $132 r0 *1 457.085,325.915 sg13_lv_nmos
M$132 VSS \$483 \$461 VSS sg13_lv_nmos W=0.74 L=0.13
* device instance $133 r0 *1 464.925,325.53 sg13_lv_nmos
M$133 \$470 \$471 VSS VSS sg13_lv_nmos W=0.42 L=0.13
* device instance $134 r0 *1 465.435,325.53 sg13_lv_nmos
M$134 VSS \$467 \$477 VSS sg13_lv_nmos W=0.42 L=0.13
* device instance $135 r0 *1 465.745,325.53 sg13_lv_nmos
M$135 \$477 \$475 \$471 VSS sg13_lv_nmos W=0.42 L=0.13
* device instance $136 r0 *1 467.785,325.64 sg13_lv_nmos
M$136 VSS \$475 \$473 VSS sg13_lv_nmos W=0.64 L=0.13
* device instance $137 r0 *1 466.765,325.69 sg13_lv_nmos
M$137 VSS \$475 \$472 VSS sg13_lv_nmos W=1.48 L=0.13
* device instance $139 r0 *1 468.805,325.69 sg13_lv_nmos
M$139 VSS \$473 \$437 VSS sg13_lv_nmos W=1.48 L=0.13
* device instance $141 r0 *1 470.56,325.71 sg13_lv_nmos
M$141 VSS \$437 dout VSS sg13_lv_nmos W=1.48 L=0.13
* device instance $143 r0 *1 432.72,326.275 sg13_lv_nmos
M$143 \$481 \$442 PAD|VLO VSS sg13_lv_nmos W=0.5 L=0.13
* device instance $144 r0 *1 435.105,326.28 sg13_lv_nmos
M$144 \$481 \$265 CORE$4 VSS sg13_lv_nmos W=2.0 L=0.13
* device instance $145 r0 *1 440.29,326.98 sg13_lv_nmos
M$145 VSS \$447 \$447 VSS sg13_lv_nmos W=2.5 L=1.5
* device instance $146 r0 *1 444.51,326.98 sg13_lv_nmos
M$146 VSS \$438 \$349 VSS sg13_lv_nmos W=2.5 L=1.5
* device instance $147 r0 *1 458.175,325.595 sg13_lv_nmos
M$147 VSS \$467 \$479 VSS sg13_lv_nmos W=0.42 L=0.13
* device instance $148 r0 *1 458.485,325.595 sg13_lv_nmos
M$148 \$479 \$461 \$469 VSS sg13_lv_nmos W=0.42 L=0.13
* device instance $149 r0 *1 459.26,326.32 sg13_lv_nmos
M$149 \$468 \$462 \$483 VSS sg13_lv_nmos W=0.42 L=0.13
* device instance $150 r0 *1 459.77,326.32 sg13_lv_nmos
M$150 \$483 \$484 \$469 VSS sg13_lv_nmos W=0.42 L=0.13
* device instance $151 r0 *1 460.575,329.87 sg13_lv_nmos
M$151 VSS \$296 \$531 VSS sg13_lv_nmos W=2.0 L=1.0
* device instance $152 r0 *1 460.575,330.815 sg13_lv_nmos
M$152 \$531 \$266 \$538 VSS sg13_lv_nmos W=2.0 L=0.13
* device instance $153 r0 *1 460.575,331.325 sg13_lv_nmos
M$153 \$538 \$543 \$542 VSS sg13_lv_nmos W=2.0 L=0.13
* device instance $154 r0 *1 461.03,325.795 sg13_lv_nmos
M$154 VSS \$462 \$484 VSS sg13_lv_nmos W=0.74 L=0.13
* device instance $155 r0 *1 462.13,325.795 sg13_lv_nmos
M$155 VSS \$265 \$462 VSS sg13_lv_nmos W=0.74 L=0.13
* device instance $156 r0 *1 463.65,329.87 sg13_lv_nmos
M$156 VSS \$525 \$532 VSS sg13_lv_nmos W=2.0 L=1.0
* device instance $157 r0 *1 463.65,330.815 sg13_lv_nmos
M$157 \$532 \$266 \$539 VSS sg13_lv_nmos W=2.0 L=0.13
* device instance $158 r0 *1 463.65,331.325 sg13_lv_nmos
M$158 \$539 \$542 \$543 VSS sg13_lv_nmos W=2.0 L=0.13
* device instance $159 r0 *1 463.34,325.915 sg13_lv_nmos
M$159 \$475 \$462 \$470 VSS sg13_lv_nmos W=0.42 L=0.13
* device instance $160 r0 *1 463.875,325.755 sg13_lv_nmos
M$160 \$461 \$484 \$475 VSS sg13_lv_nmos W=0.74 L=0.13
* device instance $161 r0 *1 467.385,330.81 sg13_lv_nmos
M$161 VSS \$543 \$540 VSS sg13_lv_nmos W=2.0 L=0.13
* device instance $162 r0 *1 467.385,331.32 sg13_lv_nmos
M$162 \$540 \$545 \$544 VSS sg13_lv_nmos W=2.0 L=0.13
* device instance $163 r0 *1 470.52,330.81 sg13_lv_nmos
M$163 VSS \$542 \$541 VSS sg13_lv_nmos W=2.0 L=0.13
* device instance $164 r0 *1 470.52,331.32 sg13_lv_nmos
M$164 \$541 \$544 \$545 VSS sg13_lv_nmos W=2.0 L=0.13
* device instance $165 r0 *1 457.62,331.325 sg13_lv_nmos
M$165 \$525 \$265 \$269 VSS sg13_lv_nmos W=2.0 L=0.13
* device instance $166 r0 *1 1060.995,397.48 sg13_lv_nmos
M$166 \$618 \$620 VSS VSS sg13_lv_nmos W=2.75 L=0.13
* device instance $167 r0 *1 1060.995,400.99 sg13_lv_nmos
M$167 \$646 \$620 VSS VSS sg13_lv_nmos W=2.75 L=0.13
* device instance $168 r0 *1 1060.995,497.48 sg13_lv_nmos
M$168 \$732 \$734 VSS VSS sg13_lv_nmos W=2.75 L=0.13
* device instance $169 r0 *1 1060.995,500.99 sg13_lv_nmos
M$169 \$760 \$734 VSS VSS sg13_lv_nmos W=2.75 L=0.13
* device instance $170 r0 *1 485.618,504.427 sg13_lv_nmos
M$170 \$784 \$794 \$800 VSS sg13_lv_nmos W=0.42 L=0.13
* device instance $171 r0 *1 486.008,504.427 sg13_lv_nmos
M$171 \$800 \$785 VSS VSS sg13_lv_nmos W=0.42 L=0.13
* device instance $172 r0 *1 486.568,504.427 sg13_lv_nmos
M$172 VSS \$771 \$799 VSS sg13_lv_nmos W=0.42 L=0.13
* device instance $173 r0 *1 486.923,504.427 sg13_lv_nmos
M$173 \$799 \$784 \$785 VSS sg13_lv_nmos W=0.42 L=0.13
* device instance $174 r0 *1 483.978,504.537 sg13_lv_nmos
M$174 VSS \$782 \$783 VSS sg13_lv_nmos W=0.64 L=0.13
* device instance $175 r0 *1 484.648,504.537 sg13_lv_nmos
M$175 \$783 \$777 \$784 VSS sg13_lv_nmos W=0.64 L=0.13
* device instance $176 r0 *1 482.098,504.652 sg13_lv_nmos
M$176 \$781 \$794 \$782 VSS sg13_lv_nmos W=0.42 L=0.13
* device instance $177 r0 *1 482.608,504.652 sg13_lv_nmos
M$177 \$782 \$777 \$798 VSS sg13_lv_nmos W=0.42 L=0.13
* device instance $178 r0 *1 482.998,504.652 sg13_lv_nmos
M$178 \$798 \$783 \$797 VSS sg13_lv_nmos W=0.42 L=0.13
* device instance $179 r0 *1 483.358,504.652 sg13_lv_nmos
M$179 VSS \$771 \$797 VSS sg13_lv_nmos W=0.42 L=0.13
* device instance $180 r0 *1 476.768,504.592 sg13_lv_nmos
M$180 VSS \$955 \$780 VSS sg13_lv_nmos W=0.74 L=0.13
* device instance $181 r0 *1 487.963,504.592 sg13_lv_nmos
M$181 VSS \$784 \$786 VSS sg13_lv_nmos W=0.74 L=0.13
* device instance $182 r0 *1 489.163,504.497 sg13_lv_nmos
M$182 \$787 \$784 VSS VSS sg13_lv_nmos W=0.55 L=0.12999999999999998
* device instance $183 r0 *1 489.703,504.592 sg13_lv_nmos
M$183 VSS \$787 \$788 VSS sg13_lv_nmos W=0.74 L=0.13
* device instance $184 r0 *1 491.898,504.592 sg13_lv_nmos
M$184 VSS \$788 \$734 VSS sg13_lv_nmos W=1.48 L=0.13
* device instance $186 r0 *1 494.693,504.591 sg13_lv_nmos
M$186 VSS \$172 \$771 VSS sg13_lv_nmos W=0.74 L=0.13
* device instance $187 r0 *1 496.608,504.591 sg13_lv_nmos
M$187 VSS \$801 \$789 VSS sg13_lv_nmos W=1.48 L=0.13
* device instance $189 r0 *1 497.628,504.641 sg13_lv_nmos
M$189 VSS \$851 \$801 VSS sg13_lv_nmos W=0.64 L=0.13
* device instance $190 r0 *1 478.818,504.452 sg13_lv_nmos
M$190 \$781 \$851 \$796 VSS sg13_lv_nmos W=0.42 L=0.13
* device instance $191 r0 *1 479.188,504.452 sg13_lv_nmos
M$191 \$796 \$771 VSS VSS sg13_lv_nmos W=0.42 L=0.13
* device instance $192 r0 *1 480.333,504.767 sg13_lv_nmos
M$192 VSS \$955 \$794 VSS sg13_lv_nmos W=0.74 L=0.13
* device instance $193 r0 *1 480.843,504.767 sg13_lv_nmos
M$193 VSS \$794 \$777 VSS sg13_lv_nmos W=0.74 L=0.13
* device instance $194 r0 *1 481.503,510.997 sg13_lv_nmos
M$194 VSS \$836 \$841 VSS sg13_lv_nmos W=2.0 L=1.0
* device instance $195 r0 *1 481.703,513.099 sg13_lv_nmos
M$195 \$841 \$896 \$847 VSS sg13_lv_nmos W=2.0 L=0.13
* device instance $196 r0 *1 483.503,509.467 sg13_lv_nmos
M$196 \$831 \$955 \$832 VSS sg13_lv_nmos W=2.0 L=0.13
* device instance $197 r0 *1 482.903,513.099 sg13_lv_nmos
M$197 \$847 \$866 \$848 VSS sg13_lv_nmos W=2.0 L=0.13
* device instance $198 r0 *1 484.103,513.099 sg13_lv_nmos
M$198 \$866 \$848 \$849 VSS sg13_lv_nmos W=2.0 L=0.13
* device instance $199 r0 *1 485.503,510.997 sg13_lv_nmos
M$199 VSS \$832 \$842 VSS sg13_lv_nmos W=2.0 L=1.0
* device instance $200 r0 *1 485.303,513.099 sg13_lv_nmos
M$200 \$849 \$896 \$842 VSS sg13_lv_nmos W=2.0 L=0.13
* device instance $201 r0 *1 488.561,513.099 sg13_lv_nmos
M$201 VSS \$866 \$850 VSS sg13_lv_nmos W=2.0 L=0.13
* device instance $202 r0 *1 489.761,513.099 sg13_lv_nmos
M$202 \$850 \$851 \$875 VSS sg13_lv_nmos W=2.0 L=0.13
* device instance $203 r0 *1 490.961,513.099 sg13_lv_nmos
M$203 \$851 \$875 \$852 VSS sg13_lv_nmos W=2.0 L=0.13
* device instance $204 r0 *1 492.161,513.099 sg13_lv_nmos
M$204 \$852 \$848 VSS VSS sg13_lv_nmos W=2.0 L=0.13
* device instance $205 r0 *1 438.155,518.846 sg13_lv_nmos
M$205 VSS \$887 \$888 VSS sg13_lv_nmos W=2.96 L=0.13
* device instance $209 r0 *1 441.035,518.846 sg13_lv_nmos
M$209 VSS \$888 \$889 VSS sg13_lv_nmos W=2.96 L=0.13
* device instance $213 r0 *1 443.915,518.846 sg13_lv_nmos
M$213 VSS \$889 \$890 VSS sg13_lv_nmos W=2.96 L=0.13
* device instance $217 r0 *1 446.795,518.846 sg13_lv_nmos
M$217 VSS \$890 \$891 VSS sg13_lv_nmos W=2.96 L=0.13
* device instance $221 r0 *1 449.675,518.846 sg13_lv_nmos
M$221 VSS \$891 \$892 VSS sg13_lv_nmos W=2.96 L=0.13
* device instance $225 r0 *1 452.555,518.846 sg13_lv_nmos
M$225 VSS \$892 \$893 VSS sg13_lv_nmos W=2.96 L=0.13
* device instance $229 r0 *1 458.315,518.846 sg13_lv_nmos
M$229 VSS \$894 \$895 VSS sg13_lv_nmos W=2.96 L=0.13
* device instance $233 r0 *1 461.135,518.846 sg13_lv_nmos
M$233 VSS \$895 \$896 VSS sg13_lv_nmos W=5.920000000000001 L=0.13
* device instance $241 r0 *1 431.455,521.281 sg13_lv_nmos
M$241 VSS \$173 \$898 VSS sg13_lv_nmos W=1.48 L=0.13
* device instance $243 r0 *1 433.375,521.281 sg13_lv_nmos
M$243 VSS \$898 \$944 VSS sg13_lv_nmos W=1.48 L=0.13
* device instance $245 r0 *1 435.35,518.871 sg13_lv_nmos
M$245 \$913 \$951 VSS VSS sg13_lv_nmos W=1.44 L=0.13
* device instance $247 r0 *1 436.38,518.871 sg13_lv_nmos
M$247 \$913 \$898 \$887 VSS sg13_lv_nmos W=1.44 L=0.13
* device instance $249 r0 *1 435.35,521.256 sg13_lv_nmos
M$249 \$945 \$893 VSS VSS sg13_lv_nmos W=1.44 L=0.13
* device instance $251 r0 *1 436.38,521.256 sg13_lv_nmos
M$251 \$945 \$944 \$972 VSS sg13_lv_nmos W=1.44 L=0.13
* device instance $253 r0 *1 438.155,521.281 sg13_lv_nmos
M$253 VSS \$972 \$946 VSS sg13_lv_nmos W=2.96 L=0.13
* device instance $257 r0 *1 441.035,521.281 sg13_lv_nmos
M$257 VSS \$946 \$947 VSS sg13_lv_nmos W=2.96 L=0.13
* device instance $261 r0 *1 443.915,521.281 sg13_lv_nmos
M$261 VSS \$947 \$948 VSS sg13_lv_nmos W=2.96 L=0.13
* device instance $265 r0 *1 446.795,521.281 sg13_lv_nmos
M$265 VSS \$948 \$949 VSS sg13_lv_nmos W=2.96 L=0.13
* device instance $269 r0 *1 449.675,521.281 sg13_lv_nmos
M$269 VSS \$949 \$950 VSS sg13_lv_nmos W=2.96 L=0.13
* device instance $273 r0 *1 452.555,521.281 sg13_lv_nmos
M$273 VSS \$950 \$951 VSS sg13_lv_nmos W=2.96 L=0.13
* device instance $277 r0 *1 455.51,518.871 sg13_lv_nmos
M$277 \$914 \$893 VSS VSS sg13_lv_nmos W=1.44 L=0.13
* device instance $279 r0 *1 456.54,518.871 sg13_lv_nmos
M$279 \$914 \$891 \$894 VSS sg13_lv_nmos W=1.44 L=0.13
* device instance $281 r0 *1 455.51,521.256 sg13_lv_nmos
M$281 \$952 \$951 VSS VSS sg13_lv_nmos W=1.44 L=0.13
* device instance $283 r0 *1 456.54,521.256 sg13_lv_nmos
M$283 \$952 \$949 \$953 VSS sg13_lv_nmos W=1.44 L=0.13
* device instance $285 r0 *1 458.315,521.281 sg13_lv_nmos
M$285 VSS \$953 \$954 VSS sg13_lv_nmos W=2.96 L=0.13
* device instance $289 r0 *1 461.135,521.281 sg13_lv_nmos
M$289 VSS \$954 \$955 VSS sg13_lv_nmos W=5.920000000000001 L=0.13
* device instance $297 r0 *1 431.5,535.261 sg13_lv_nmos
M$297 VSS \$955 \$996 VSS sg13_lv_nmos W=0.74 L=0.13
* device instance $298 r0 *1 432.935,535.356 sg13_lv_nmos
M$298 VSS \$788 \$997 VSS sg13_lv_nmos W=0.55 L=0.12999999999999998
* device instance $299 r0 *1 433.785,535.261 sg13_lv_nmos
M$299 VSS \$896 \$1015 VSS sg13_lv_nmos W=0.74 L=0.13
* device instance $300 r0 *1 434.095,535.261 sg13_lv_nmos
M$300 \$1015 \$997 \$998 VSS sg13_lv_nmos W=0.74 L=0.13
* device instance $301 r0 *1 434.07,553.206 sg13_lv_nmos
M$301 \$1057 \$1000 PAD|VLO VSS sg13_lv_nmos W=0.5 L=0.13
* device instance $302 r0 *1 435.785,535.421 sg13_lv_nmos
M$302 \$999 \$896 \$1012 VSS sg13_lv_nmos W=0.64 L=0.13
* device instance $303 r0 *1 436.295,535.421 sg13_lv_nmos
M$303 VSS \$788 \$1012 VSS sg13_lv_nmos W=0.64 L=0.13
* device instance $304 r0 *1 436.805,535.371 sg13_lv_nmos
M$304 VSS \$999 \$1000 VSS sg13_lv_nmos W=0.74 L=0.13
* device instance $305 r0 *1 436.815,553.216 sg13_lv_nmos
M$305 \$1057 \$955 CORE$6 VSS sg13_lv_nmos W=2.0 L=0.13
* device instance $306 r0 *1 443.55,535.276 sg13_lv_nmos
M$306 VSS \$1001 \$1001 VSS sg13_lv_nmos W=2.5 L=1.5
* device instance $307 r0 *1 444.09,553.171 sg13_lv_nmos
M$307 \$1001 \$950 \$1055 VSS sg13_lv_nmos W=2.0 L=0.13
* device instance $308 r0 *1 449.83,597.155 sg13_lv_nmos
M$308 \$1123 \$1177 VSS VSS sg13_lv_nmos W=1.44 L=0.13
* device instance $310 r0 *1 450.86,597.155 sg13_lv_nmos
M$310 \$1123 \$1133 \$1134 VSS sg13_lv_nmos W=1.44 L=0.13
* device instance $312 r0 *1 455.2,535.261 sg13_lv_nmos
M$312 VSS \$1022 \$1017 VSS sg13_lv_nmos W=2.5 L=1.5
* device instance $313 r0 *1 454.14,553.166 sg13_lv_nmos
M$313 \$1055 \$896 \$1062 VSS sg13_lv_nmos W=2.0 L=0.13
* device instance $314 r0 *1 455.45,553.166 sg13_lv_nmos
M$314 \$1062 \$955 \$1022 VSS sg13_lv_nmos W=2.0 L=0.13
* device instance $315 r0 *1 456.763,553.166 sg13_lv_nmos
M$315 \$1062 \$172 \$1017 VSS sg13_lv_nmos W=2.0 L=0.13
* device instance $316 r0 *1 466.5,535.261 sg13_lv_nmos
M$316 VSS \$896 \$1002 VSS sg13_lv_nmos W=0.74 L=0.13
* device instance $317 r0 *1 467.935,535.356 sg13_lv_nmos
M$317 VSS \$789 \$1003 VSS sg13_lv_nmos W=0.55 L=0.12999999999999998
* device instance $318 r0 *1 468.785,535.261 sg13_lv_nmos
M$318 VSS \$955 \$1010 VSS sg13_lv_nmos W=0.74 L=0.13
* device instance $319 r0 *1 469.095,535.261 sg13_lv_nmos
M$319 \$1010 \$1003 \$1004 VSS sg13_lv_nmos W=0.74 L=0.13
* device instance $320 r0 *1 469.07,553.206 sg13_lv_nmos
M$320 \$1046 \$1006 PAD|VLO VSS sg13_lv_nmos W=0.5 L=0.13
* device instance $321 r0 *1 469.99,597.155 sg13_lv_nmos
M$321 \$1130 \$1129 VSS VSS sg13_lv_nmos W=1.44 L=0.13
* device instance $323 r0 *1 471.02,597.155 sg13_lv_nmos
M$323 \$1130 \$1127 \$1135 VSS sg13_lv_nmos W=1.44 L=0.13
* device instance $325 r0 *1 470.785,535.421 sg13_lv_nmos
M$325 \$1005 \$955 \$1008 VSS sg13_lv_nmos W=0.64 L=0.13
* device instance $326 r0 *1 471.295,535.421 sg13_lv_nmos
M$326 VSS \$789 \$1008 VSS sg13_lv_nmos W=0.64 L=0.13
* device instance $327 r0 *1 471.805,535.371 sg13_lv_nmos
M$327 VSS \$1005 \$1006 VSS sg13_lv_nmos W=0.74 L=0.13
* device instance $328 r0 *1 471.815,553.216 sg13_lv_nmos
M$328 \$1046 \$896 \$1017 VSS sg13_lv_nmos W=2.0 L=0.13
* device instance $329 r0 *1 478.55,535.276 sg13_lv_nmos
M$329 VSS \$836 \$836 VSS sg13_lv_nmos W=2.5 L=1.5
* device instance $330 r0 *1 479.09,553.171 sg13_lv_nmos
M$330 \$836 \$892 \$1056 VSS sg13_lv_nmos W=2.0 L=0.13
* device instance $331 r0 *1 490.2,535.261 sg13_lv_nmos
M$331 VSS \$1023 \$831 VSS sg13_lv_nmos W=2.5 L=1.5
* device instance $332 r0 *1 489.14,553.166 sg13_lv_nmos
M$332 \$1056 \$955 \$1063 VSS sg13_lv_nmos W=2.0 L=0.13
* device instance $333 r0 *1 490.45,553.166 sg13_lv_nmos
M$333 \$1063 \$896 \$1023 VSS sg13_lv_nmos W=2.0 L=0.13
* device instance $334 r0 *1 491.763,553.166 sg13_lv_nmos
M$334 \$1063 \$172 \$831 VSS sg13_lv_nmos W=2.0 L=0.13
* device instance $335 r0 *1 452.635,597.18 sg13_lv_nmos
M$335 VSS \$1134 \$1124 VSS sg13_lv_nmos W=2.96 L=0.13
* device instance $339 r0 *1 455.515,597.18 sg13_lv_nmos
M$339 VSS \$1124 \$1125 VSS sg13_lv_nmos W=2.96 L=0.13
* device instance $343 r0 *1 458.395,597.18 sg13_lv_nmos
M$343 VSS \$1125 \$1126 VSS sg13_lv_nmos W=2.96 L=0.13
* device instance $347 r0 *1 461.275,597.18 sg13_lv_nmos
M$347 VSS \$1126 \$1127 VSS sg13_lv_nmos W=2.96 L=0.13
* device instance $351 r0 *1 464.155,597.18 sg13_lv_nmos
M$351 VSS \$1127 \$1128 VSS sg13_lv_nmos W=2.96 L=0.13
* device instance $355 r0 *1 467.035,597.18 sg13_lv_nmos
M$355 VSS \$1128 \$1129 VSS sg13_lv_nmos W=2.96 L=0.13
* device instance $359 r0 *1 472.795,597.18 sg13_lv_nmos
M$359 VSS \$1135 \$1131 VSS sg13_lv_nmos W=2.96 L=0.13
* device instance $363 r0 *1 475.615,597.18 sg13_lv_nmos
M$363 VSS \$1131 \$1132 VSS sg13_lv_nmos W=5.920000000000001 L=0.13
* device instance $371 r0 *1 445.935,602.98 sg13_lv_nmos
M$371 VSS \$1119 \$1133 VSS sg13_lv_nmos W=1.48 L=0.13
* device instance $373 r0 *1 447.855,602.98 sg13_lv_nmos
M$373 VSS \$1133 \$1169 VSS sg13_lv_nmos W=1.48 L=0.13
* device instance $375 r0 *1 449.83,602.955 sg13_lv_nmos
M$375 \$1170 \$1129 VSS VSS sg13_lv_nmos W=1.44 L=0.13
* device instance $377 r0 *1 450.86,602.955 sg13_lv_nmos
M$377 \$1170 \$1169 \$1171 VSS sg13_lv_nmos W=1.44 L=0.13
* device instance $379 r0 *1 452.635,602.98 sg13_lv_nmos
M$379 VSS \$1171 \$1172 VSS sg13_lv_nmos W=2.96 L=0.13
* device instance $383 r0 *1 455.515,602.98 sg13_lv_nmos
M$383 VSS \$1172 \$1173 VSS sg13_lv_nmos W=2.96 L=0.13
* device instance $387 r0 *1 458.395,602.98 sg13_lv_nmos
M$387 VSS \$1173 \$1174 VSS sg13_lv_nmos W=2.96 L=0.13
* device instance $391 r0 *1 461.275,602.98 sg13_lv_nmos
M$391 VSS \$1174 \$1175 VSS sg13_lv_nmos W=2.96 L=0.13
* device instance $395 r0 *1 464.155,602.98 sg13_lv_nmos
M$395 VSS \$1175 \$1176 VSS sg13_lv_nmos W=2.96 L=0.13
* device instance $399 r0 *1 467.035,602.98 sg13_lv_nmos
M$399 VSS \$1176 \$1177 VSS sg13_lv_nmos W=2.96 L=0.13
* device instance $403 r0 *1 469.99,602.955 sg13_lv_nmos
M$403 \$1178 \$1177 VSS VSS sg13_lv_nmos W=1.44 L=0.13
* device instance $405 r0 *1 471.02,602.955 sg13_lv_nmos
M$405 \$1178 \$1175 \$1179 VSS sg13_lv_nmos W=1.44 L=0.13
* device instance $407 r0 *1 472.795,602.98 sg13_lv_nmos
M$407 VSS \$1179 \$1180 VSS sg13_lv_nmos W=2.96 L=0.13
* device instance $411 r0 *1 475.615,602.98 sg13_lv_nmos
M$411 VSS \$1180 \$1181 VSS sg13_lv_nmos W=5.920000000000001 L=0.13
* device instance $419 r0 *1 433.27,616.415 sg13_lv_nmos
M$419 VSS \$1181 \$1239 VSS sg13_lv_nmos W=0.74 L=0.13
* device instance $420 r0 *1 434.36,616.51 sg13_lv_nmos
M$420 VSS \$1212 \$1243 VSS sg13_lv_nmos W=0.55 L=0.12999999999999998
* device instance $421 r0 *1 435.21,616.415 sg13_lv_nmos
M$421 VSS \$1132 \$1252 VSS sg13_lv_nmos W=0.74 L=0.13
* device instance $422 r0 *1 435.52,616.415 sg13_lv_nmos
M$422 \$1252 \$1243 \$1240 VSS sg13_lv_nmos W=0.74 L=0.13
* device instance $423 r0 *1 436.85,616.575 sg13_lv_nmos
M$423 \$1248 \$1132 \$1260 VSS sg13_lv_nmos W=0.64 L=0.13
* device instance $424 r0 *1 437.36,616.575 sg13_lv_nmos
M$424 VSS \$1212 \$1260 VSS sg13_lv_nmos W=0.64 L=0.13
* device instance $425 r0 *1 437.87,616.525 sg13_lv_nmos
M$425 VSS \$1248 \$1232 VSS sg13_lv_nmos W=0.74 L=0.13
* device instance $426 r0 *1 441.655,618.475 sg13_lv_nmos
M$426 PAD|VLO \$1232 \$1299 VSS sg13_lv_nmos W=0.5 L=0.13
* device instance $427 r0 *1 454.37,617.83 sg13_lv_nmos
M$427 \$1369 \$1181 \$1335 VSS sg13_lv_nmos W=2.0 L=0.13
* device instance $428 r0 *1 454.37,618.34 sg13_lv_nmos
M$428 \$1335 \$172 \$1279 VSS sg13_lv_nmos W=2.0 L=0.13
* device instance $429 r0 *1 454.37,616.04 sg13_lv_nmos
M$429 \$1233 \$1176 \$1257 VSS sg13_lv_nmos W=2.0 L=0.13
* device instance $430 r0 *1 454.37,616.55 sg13_lv_nmos
M$430 \$1257 \$1132 \$1335 VSS sg13_lv_nmos W=2.0 L=0.13
* device instance $431 r0 *1 469.325,616.415 sg13_lv_nmos
M$431 VSS \$1132 \$1241 VSS sg13_lv_nmos W=0.74 L=0.13
* device instance $432 r0 *1 470.415,616.51 sg13_lv_nmos
M$432 VSS \$1213 \$1244 VSS sg13_lv_nmos W=0.55 L=0.12999999999999998
* device instance $433 r0 *1 471.265,616.415 sg13_lv_nmos
M$433 VSS \$1181 \$1255 VSS sg13_lv_nmos W=0.74 L=0.13
* device instance $434 r0 *1 471.575,616.415 sg13_lv_nmos
M$434 \$1255 \$1244 \$1242 VSS sg13_lv_nmos W=0.74 L=0.13
* device instance $435 r0 *1 472.905,616.575 sg13_lv_nmos
M$435 \$1249 \$1181 \$1268 VSS sg13_lv_nmos W=0.64 L=0.13
* device instance $436 r0 *1 473.415,616.575 sg13_lv_nmos
M$436 VSS \$1213 \$1268 VSS sg13_lv_nmos W=0.64 L=0.13
* device instance $437 r0 *1 473.925,616.525 sg13_lv_nmos
M$437 VSS \$1249 \$1234 VSS sg13_lv_nmos W=0.74 L=0.13
* device instance $438 r0 *1 477.71,618.475 sg13_lv_nmos
M$438 PAD|VLO \$1234 \$1300 VSS sg13_lv_nmos W=0.5 L=0.13
* device instance $439 r0 *1 490.425,616.04 sg13_lv_nmos
M$439 \$1235 \$1128 \$1258 VSS sg13_lv_nmos W=2.0 L=0.13
* device instance $440 r0 *1 490.425,616.55 sg13_lv_nmos
M$440 \$1258 \$1181 \$1336 VSS sg13_lv_nmos W=2.0 L=0.13
* device instance $441 r0 *1 490.425,617.83 sg13_lv_nmos
M$441 \$1370 \$1132 \$1336 VSS sg13_lv_nmos W=2.0 L=0.13
* device instance $442 r0 *1 490.425,618.34 sg13_lv_nmos
M$442 \$1336 \$172 \$1280 VSS sg13_lv_nmos W=2.0 L=0.13
* device instance $443 r0 *1 505.425,616.53 sg13_lv_nmos
M$443 VSS \$1181 \$1245 VSS sg13_lv_nmos W=0.74 L=0.13
* device instance $444 r0 *1 520.915,619.83 sg13_lv_nmos
M$444 \$1301 \$1311 \$1313 VSS sg13_lv_nmos W=0.42 L=0.13
* device instance $445 r0 *1 521.225,619.83 sg13_lv_nmos
M$445 \$1313 \$1295 VSS VSS sg13_lv_nmos W=0.42 L=0.13
* device instance $446 r0 *1 521.805,620.215 sg13_lv_nmos
M$446 VSS \$1326 \$1302 VSS sg13_lv_nmos W=0.74 L=0.13
* device instance $447 r0 *1 522.895,619.895 sg13_lv_nmos
M$447 VSS \$1295 \$1314 VSS sg13_lv_nmos W=0.42 L=0.13
* device instance $448 r0 *1 523.205,619.895 sg13_lv_nmos
M$448 \$1314 \$1302 \$1310 VSS sg13_lv_nmos W=0.42 L=0.13
* device instance $449 r0 *1 528.06,620.215 sg13_lv_nmos
M$449 \$1312 \$1303 \$1304 VSS sg13_lv_nmos W=0.42 L=0.13
* device instance $450 r0 *1 528.595,620.055 sg13_lv_nmos
M$450 \$1302 \$1337 \$1312 VSS sg13_lv_nmos W=0.74 L=0.13
* device instance $451 r0 *1 529.645,619.83 sg13_lv_nmos
M$451 \$1304 \$1305 VSS VSS sg13_lv_nmos W=0.42 L=0.13
* device instance $452 r0 *1 530.155,619.83 sg13_lv_nmos
M$452 VSS \$1295 \$1316 VSS sg13_lv_nmos W=0.42 L=0.13
* device instance $453 r0 *1 530.465,619.83 sg13_lv_nmos
M$453 \$1316 \$1312 \$1305 VSS sg13_lv_nmos W=0.42 L=0.13
* device instance $454 r0 *1 532.505,619.94 sg13_lv_nmos
M$454 VSS \$1312 \$1307 VSS sg13_lv_nmos W=0.64 L=0.13
* device instance $455 r0 *1 531.485,619.99 sg13_lv_nmos
M$455 VSS \$1312 \$1306 VSS sg13_lv_nmos W=1.48 L=0.13
* device instance $457 r0 *1 533.525,619.99 sg13_lv_nmos
M$457 VSS \$1307 \$1212 VSS sg13_lv_nmos W=1.48 L=0.13
* device instance $459 r0 *1 535.21,620.01 sg13_lv_nmos
M$459 VSS \$1212 \$1274 VSS sg13_lv_nmos W=1.48 L=0.13
* device instance $461 r0 *1 537,620.005 sg13_lv_nmos
M$461 \$1295 \$172 VSS VSS sg13_lv_nmos W=0.74 L=0.13
* device instance $462 r0 *1 433.495,621.675 sg13_lv_nmos
M$462 CORE$9 \$1181 \$1299 VSS sg13_lv_nmos W=2.0 L=0.13
* device instance $463 r0 *1 456.64,623.065 sg13_lv_nmos
M$463 VSS \$1369 \$1279 VSS sg13_lv_nmos W=2.5 L=1.5
* device instance $464 r0 *1 462.64,623.065 sg13_lv_nmos
M$464 VSS \$1233 \$1233 VSS sg13_lv_nmos W=2.5 L=1.5
* device instance $465 r0 *1 469.55,621.675 sg13_lv_nmos
M$465 \$1279 \$1132 \$1300 VSS sg13_lv_nmos W=2.0 L=0.13
* device instance $466 r0 *1 492.695,623.065 sg13_lv_nmos
M$466 VSS \$1370 \$1280 VSS sg13_lv_nmos W=2.5 L=1.5