* Extracted by KLayout with SG13G2 LVS runset on : 10/05/2024 08:20

* cell UHEE628_S2024
* pin PAD,RES
* pin CK4,PAD
* pin CK5,PAD
* pin CK6,PAD
* pin IOVDD
* pin AVDD
* pin CORE
* pin CORE
* pin CORE
* pin CORE
* pin IN6,PAD
* pin OUT6
* pin VDD
* pin dout
* pin CORE
* pin IN5,PAD
* pin OUT5
* pin CORE
* pin IN4,PAD
* pin OUT4
* pin CORE
* pin PAD,VLO
* pin CORE
* pin PAD,VHI
* pin CORE
* pin IN3,PAD
* pin OUT3
* pin CORE
* pin PAD,VLDO
* pin IN2,PAD
* pin OUT2
* pin CORE
* pin CORE
* pin IN1,PAD
* pin OUT1
* pin CORE
* pin PAD,VREF
* pin CORE
* pin CORE
* pin CORE
* pin CORE
* pin CK3,PAD
* pin CK2,PAD
* pin CK1,PAD
* pin VSS
.SUBCKT UHEE628_S2024 PAD|RES CK4|PAD CK5|PAD CK6|PAD IOVDD AVDD CORE CORE$1
+ CORE$2 CORE$3 IN6|PAD OUT6 VDD dout CORE$4 IN5|PAD OUT5 CORE$5 IN4|PAD OUT4
+ CORE$6 PAD|VLO CORE$7 PAD|VHI CORE$8 IN3|PAD OUT3 CORE$9 PAD|VLDO IN2|PAD
+ OUT2 CORE$10 CORE$11 IN1|PAD OUT1 CORE$12 PAD|VREF CORE$13 CORE$14 CORE$15
+ CORE$16 CK3|PAD CK2|PAD CK1|PAD VSS
* device instance $1 r0 *1 500.255,239.005 sg13_lv_nmos
M$1 \$172 \$177 VSS VSS sg13_lv_nmos W=2.75 L=0.13
* device instance $2 r0 *1 700.255,239.005 sg13_lv_nmos
M$2 \$173 \$178 VSS VSS sg13_lv_nmos W=2.75 L=0.13
* device instance $3 r0 *1 800.255,239.005 sg13_lv_nmos
M$3 \$174 \$179 VSS VSS sg13_lv_nmos W=2.75 L=0.13
* device instance $4 r0 *1 900.255,239.005 sg13_lv_nmos
M$4 \$175 \$180 VSS VSS sg13_lv_nmos W=2.75 L=0.13
* device instance $5 r0 *1 1060.995,297.48 sg13_lv_nmos
M$5 \$229 dout VSS VSS sg13_lv_nmos W=2.75 L=0.13
* device instance $6 r0 *1 431.875,301.115 sg13_lv_nmos
M$6 \$260 \$281 VSS VSS sg13_lv_nmos W=1.44 L=0.13
* device instance $8 r0 *1 432.905,301.115 sg13_lv_nmos
M$8 \$260 \$373 \$268 VSS sg13_lv_nmos W=1.44 L=0.13
* device instance $10 r0 *1 434.755,301.115 sg13_lv_nmos
M$10 \$261 \$282 VSS VSS sg13_lv_nmos W=1.44 L=0.13
* device instance $12 r0 *1 435.785,301.115 sg13_lv_nmos
M$12 \$261 \$329 \$262 VSS sg13_lv_nmos W=1.44 L=0.13
* device instance $14 r0 *1 437.56,301.14 sg13_lv_nmos
M$14 VSS \$268 \$263 VSS sg13_lv_nmos W=2.96 L=0.13
* device instance $18 r0 *1 440.44,301.14 sg13_lv_nmos
M$18 VSS \$262 \$264 VSS sg13_lv_nmos W=2.96 L=0.13
* device instance $22 r0 *1 443.26,301.14 sg13_lv_nmos
M$22 VSS \$263 \$265 VSS sg13_lv_nmos W=5.920000000000001 L=0.13
* device instance $30 r0 *1 448.06,301.14 sg13_lv_nmos
M$30 VSS \$264 \$266 VSS sg13_lv_nmos W=5.920000000000001 L=0.13
* device instance $38 r0 *1 431.085,305.825 sg13_lv_nmos
M$38 VSS \$175 \$323 VSS sg13_lv_nmos W=1.48 L=0.13
* device instance $40 r0 *1 433.06,305.8 sg13_lv_nmos
M$40 \$324 \$323 VSS VSS sg13_lv_nmos W=1.44 L=0.13
* device instance $42 r0 *1 434.09,305.8 sg13_lv_nmos
M$42 \$324 \$281 \$325 VSS sg13_lv_nmos W=1.44 L=0.13
* device instance $44 r0 *1 435.865,305.825 sg13_lv_nmos
M$44 VSS \$325 \$326 VSS sg13_lv_nmos W=2.96 L=0.13
* device instance $48 r0 *1 438.745,305.825 sg13_lv_nmos
M$48 VSS \$326 \$327 VSS sg13_lv_nmos W=2.96 L=0.13
* device instance $52 r0 *1 441.625,305.825 sg13_lv_nmos
M$52 VSS \$327 \$328 VSS sg13_lv_nmos W=2.96 L=0.13
* device instance $56 r0 *1 444.505,305.825 sg13_lv_nmos
M$56 VSS \$328 \$329 VSS sg13_lv_nmos W=2.96 L=0.13
* device instance $60 r0 *1 447.385,305.825 sg13_lv_nmos
M$60 VSS \$329 \$330 VSS sg13_lv_nmos W=2.96 L=0.13
* device instance $64 r0 *1 450.265,305.825 sg13_lv_nmos
M$64 VSS \$330 \$282 VSS sg13_lv_nmos W=2.96 L=0.13
* device instance $68 r0 *1 456.79,303.21 sg13_lv_nmos
M$68 VSS \$266 \$290 VSS sg13_lv_nmos W=0.74 L=0.13
* device instance $69 r0 *1 457.97,303.37 sg13_lv_nmos
M$69 \$293 \$265 \$305 VSS sg13_lv_nmos W=0.64 L=0.13
* device instance $70 r0 *1 458.48,303.37 sg13_lv_nmos
M$70 VSS \$246 \$305 VSS sg13_lv_nmos W=0.64 L=0.13
* device instance $71 r0 *1 458.99,303.32 sg13_lv_nmos
M$71 VSS \$293 \$294 VSS sg13_lv_nmos W=0.74 L=0.13
* device instance $72 r0 *1 460.28,303.305 sg13_lv_nmos
M$72 VSS \$246 \$295 VSS sg13_lv_nmos W=0.55 L=0.12999999999999998
* device instance $73 r0 *1 461.13,303.21 sg13_lv_nmos
M$73 VSS \$265 \$307 VSS sg13_lv_nmos W=0.74 L=0.13
* device instance $74 r0 *1 461.44,303.21 sg13_lv_nmos
M$74 \$307 \$295 \$291 VSS sg13_lv_nmos W=0.74 L=0.13
* device instance $75 r0 *1 465.4,304.425 sg13_lv_nmos
M$75 \$296 \$330 \$285 VSS sg13_lv_nmos W=2.0 L=0.13
* device instance $76 r0 *1 465.91,304.425 sg13_lv_nmos
M$76 \$285 \$265 \$297 VSS sg13_lv_nmos W=2.0 L=0.13
* device instance $77 r0 *1 469.22,304.415 sg13_lv_nmos
M$77 \$270 \$266 \$297 VSS sg13_lv_nmos W=2.0 L=0.13
* device instance $78 r0 *1 469.73,304.415 sg13_lv_nmos
M$78 \$297 \$172 \$269 VSS sg13_lv_nmos W=2.0 L=0.13
* device instance $79 r0 *1 1060.995,300.99 sg13_lv_nmos
M$79 \$259 dout VSS VSS sg13_lv_nmos W=2.75 L=0.13
* device instance $80 r0 *1 431.05,310.465 sg13_lv_nmos
M$80 VSS \$323 \$368 VSS sg13_lv_nmos W=1.48 L=0.13
* device instance $82 r0 *1 433.025,310.44 sg13_lv_nmos
M$82 \$364 \$282 VSS VSS sg13_lv_nmos W=1.44 L=0.13
* device instance $84 r0 *1 434.055,310.44 sg13_lv_nmos
M$84 \$364 \$368 \$369 VSS sg13_lv_nmos W=1.44 L=0.13
* device instance $86 r0 *1 435.83,310.475 sg13_lv_nmos
M$86 VSS \$369 \$370 VSS sg13_lv_nmos W=2.96 L=0.13
* device instance $90 r0 *1 438.71,310.475 sg13_lv_nmos
M$90 VSS \$370 \$371 VSS sg13_lv_nmos W=2.96 L=0.13
* device instance $94 r0 *1 441.59,310.475 sg13_lv_nmos
M$94 VSS \$371 \$372 VSS sg13_lv_nmos W=2.96 L=0.13
* device instance $98 r0 *1 444.47,310.475 sg13_lv_nmos
M$98 VSS \$372 \$373 VSS sg13_lv_nmos W=2.96 L=0.13
* device instance $102 r0 *1 447.35,310.475 sg13_lv_nmos
M$102 VSS \$373 \$374 VSS sg13_lv_nmos W=2.96 L=0.13
* device instance $106 r0 *1 450.23,310.475 sg13_lv_nmos
M$106 VSS \$374 \$281 VSS sg13_lv_nmos W=2.96 L=0.13
* device instance $110 r0 *1 457.825,307.85 sg13_lv_nmos
M$110 \$345 \$294 PAD|VLO VSS sg13_lv_nmos W=0.5 L=0.13
* device instance $111 r0 *1 460.21,307.855 sg13_lv_nmos
M$111 \$345 \$266 \$349 VSS sg13_lv_nmos W=2.0 L=0.13
* device instance $112 r0 *1 465.395,308.555 sg13_lv_nmos
M$112 VSS \$296 \$296 VSS sg13_lv_nmos W=2.5 L=1.5
* device instance $113 r0 *1 469.615,308.555 sg13_lv_nmos
M$113 VSS \$270 \$269 VSS sg13_lv_nmos W=2.5 L=1.5
* device instance $114 r0 *1 431.685,321.635 sg13_lv_nmos
M$114 VSS \$265 \$441 VSS sg13_lv_nmos W=0.74 L=0.13
* device instance $115 r0 *1 432.865,321.795 sg13_lv_nmos
M$115 \$445 \$266 \$450 VSS sg13_lv_nmos W=0.64 L=0.13
* device instance $116 r0 *1 433.375,321.795 sg13_lv_nmos
M$116 VSS \$438 \$450 VSS sg13_lv_nmos W=0.64 L=0.13
* device instance $117 r0 *1 433.885,321.745 sg13_lv_nmos
M$117 VSS \$445 \$442 VSS sg13_lv_nmos W=0.74 L=0.13
* device instance $118 r0 *1 435.175,321.73 sg13_lv_nmos
M$118 VSS \$438 \$446 VSS sg13_lv_nmos W=0.55 L=0.12999999999999998
* device instance $119 r0 *1 436.025,321.635 sg13_lv_nmos
M$119 VSS \$266 \$453 VSS sg13_lv_nmos W=0.74 L=0.13
* device instance $120 r0 *1 436.335,321.635 sg13_lv_nmos
M$120 \$453 \$446 \$443 VSS sg13_lv_nmos W=0.74 L=0.13
* device instance $121 r0 *1 440.295,322.85 sg13_lv_nmos
M$121 \$447 \$374 \$432 VSS sg13_lv_nmos W=2.0 L=0.13
* device instance $122 r0 *1 440.805,322.85 sg13_lv_nmos
M$122 \$432 \$266 \$448 VSS sg13_lv_nmos W=2.0 L=0.13
* device instance $123 r0 *1 444.115,322.84 sg13_lv_nmos
M$123 \$439 \$265 \$448 VSS sg13_lv_nmos W=2.0 L=0.13
* device instance $124 r0 *1 444.625,322.84 sg13_lv_nmos
M$124 \$448 \$172 \$349 VSS sg13_lv_nmos W=2.0 L=0.13
* device instance $125 r0 *1 451.1,325.71 sg13_lv_nmos
M$125 VSS \$265 \$467 VSS sg13_lv_nmos W=0.74 L=0.13
* device instance $126 r0 *1 452.54,325.71 sg13_lv_nmos
M$126 VSS \$172 \$468 VSS sg13_lv_nmos W=0.74 L=0.13
* device instance $127 r0 *1 453.94,325.71 sg13_lv_nmos
M$127 VSS \$482 \$246 VSS sg13_lv_nmos W=1.48 L=0.13
* device instance $129 r0 *1 454.96,325.76 sg13_lv_nmos
M$129 VSS \$545 \$482 VSS sg13_lv_nmos W=0.64 L=0.13
* device instance $130 r0 *1 456.195,325.53 sg13_lv_nmos
M$130 \$469 \$545 \$481 VSS sg13_lv_nmos W=0.42 L=0.13
* device instance $131 r0 *1 456.505,325.53 sg13_lv_nmos
M$131 \$481 \$468 VSS VSS sg13_lv_nmos W=0.42 L=0.13
* device instance $132 r0 *1 457.085,325.915 sg13_lv_nmos
M$132 VSS \$483 \$461 VSS sg13_lv_nmos W=0.74 L=0.13
* device instance $133 r0 *1 464.925,325.53 sg13_lv_nmos
M$133 \$471 \$472 VSS VSS sg13_lv_nmos W=0.42 L=0.13
* device instance $134 r0 *1 465.435,325.53 sg13_lv_nmos
M$134 VSS \$468 \$478 VSS sg13_lv_nmos W=0.42 L=0.13
* device instance $135 r0 *1 465.745,325.53 sg13_lv_nmos
M$135 \$478 \$476 \$472 VSS sg13_lv_nmos W=0.42 L=0.13
* device instance $136 r0 *1 467.785,325.64 sg13_lv_nmos
M$136 VSS \$476 \$474 VSS sg13_lv_nmos W=0.64 L=0.13
* device instance $137 r0 *1 466.765,325.69 sg13_lv_nmos
M$137 VSS \$476 \$473 VSS sg13_lv_nmos W=1.48 L=0.13
* device instance $139 r0 *1 468.805,325.69 sg13_lv_nmos
M$139 VSS \$474 \$438 VSS sg13_lv_nmos W=1.48 L=0.13
* device instance $141 r0 *1 470.56,325.71 sg13_lv_nmos
M$141 VSS \$438 dout VSS sg13_lv_nmos W=1.48 L=0.13
* device instance $143 r0 *1 432.72,326.275 sg13_lv_nmos
M$143 \$466 \$442 PAD|VLO VSS sg13_lv_nmos W=0.5 L=0.13
* device instance $144 r0 *1 435.105,326.28 sg13_lv_nmos
M$144 \$466 \$265 CORE$4 VSS sg13_lv_nmos W=2.0 L=0.13
* device instance $145 r0 *1 440.29,326.98 sg13_lv_nmos
M$145 VSS \$447 \$447 VSS sg13_lv_nmos W=2.5 L=1.5
* device instance $146 r0 *1 444.51,326.98 sg13_lv_nmos
M$146 VSS \$439 \$349 VSS sg13_lv_nmos W=2.5 L=1.5
* device instance $147 r0 *1 458.175,325.595 sg13_lv_nmos
M$147 VSS \$468 \$480 VSS sg13_lv_nmos W=0.42 L=0.13
* device instance $148 r0 *1 458.485,325.595 sg13_lv_nmos
M$148 \$480 \$461 \$470 VSS sg13_lv_nmos W=0.42 L=0.13
* device instance $149 r0 *1 459.26,326.32 sg13_lv_nmos
M$149 \$469 \$462 \$483 VSS sg13_lv_nmos W=0.42 L=0.13
* device instance $150 r0 *1 459.77,326.32 sg13_lv_nmos
M$150 \$483 \$484 \$470 VSS sg13_lv_nmos W=0.42 L=0.13
* device instance $151 r0 *1 460.575,329.87 sg13_lv_nmos
M$151 VSS \$296 \$531 VSS sg13_lv_nmos W=2.0 L=1.0
* device instance $152 r0 *1 460.575,330.815 sg13_lv_nmos
M$152 \$531 \$266 \$538 VSS sg13_lv_nmos W=2.0 L=0.13
* device instance $153 r0 *1 460.575,331.325 sg13_lv_nmos
M$153 \$538 \$543 \$542 VSS sg13_lv_nmos W=2.0 L=0.13
* device instance $154 r0 *1 461.03,325.795 sg13_lv_nmos
M$154 VSS \$462 \$484 VSS sg13_lv_nmos W=0.74 L=0.13
* device instance $155 r0 *1 462.13,325.795 sg13_lv_nmos
M$155 VSS \$265 \$462 VSS sg13_lv_nmos W=0.74 L=0.13
* device instance $156 r0 *1 463.65,329.87 sg13_lv_nmos
M$156 VSS \$525 \$532 VSS sg13_lv_nmos W=2.0 L=1.0
* device instance $157 r0 *1 463.65,330.815 sg13_lv_nmos
M$157 \$532 \$266 \$539 VSS sg13_lv_nmos W=2.0 L=0.13
* device instance $158 r0 *1 463.65,331.325 sg13_lv_nmos
M$158 \$539 \$542 \$543 VSS sg13_lv_nmos W=2.0 L=0.13
* device instance $159 r0 *1 463.34,325.915 sg13_lv_nmos
M$159 \$476 \$462 \$471 VSS sg13_lv_nmos W=0.42 L=0.13
* device instance $160 r0 *1 463.875,325.755 sg13_lv_nmos
M$160 \$461 \$484 \$476 VSS sg13_lv_nmos W=0.74 L=0.13
* device instance $161 r0 *1 467.385,330.81 sg13_lv_nmos
M$161 VSS \$543 \$540 VSS sg13_lv_nmos W=2.0 L=0.13
* device instance $162 r0 *1 467.385,331.32 sg13_lv_nmos
M$162 \$540 \$545 \$544 VSS sg13_lv_nmos W=2.0 L=0.13
* device instance $163 r0 *1 470.52,330.81 sg13_lv_nmos
M$163 VSS \$542 \$541 VSS sg13_lv_nmos W=2.0 L=0.13
* device instance $164 r0 *1 470.52,331.32 sg13_lv_nmos
M$164 \$541 \$544 \$545 VSS sg13_lv_nmos W=2.0 L=0.13
* device instance $165 r0 *1 457.62,331.325 sg13_lv_nmos
M$165 \$525 \$265 \$269 VSS sg13_lv_nmos W=2.0 L=0.13
* device instance $166 r0 *1 464.231,393.708 sg13_lv_nmos
M$166 \$621 \$623 VSS VSS sg13_lv_nmos W=0.74 L=0.13
* device instance $167 r0 *1 464.741,393.758 sg13_lv_nmos
M$167 VSS \$643 \$626 VSS sg13_lv_nmos W=0.64 L=0.13
* device instance $168 r0 *1 465.251,393.758 sg13_lv_nmos
M$168 \$626 \$692 \$623 VSS sg13_lv_nmos W=0.64 L=0.13
* device instance $169 r0 *1 476.371,393.758 sg13_lv_nmos
M$169 \$624 \$650 \$629 VSS sg13_lv_nmos W=0.64 L=0.13
* device instance $170 r0 *1 476.881,393.758 sg13_lv_nmos
M$170 VSS \$625 \$629 VSS sg13_lv_nmos W=0.64 L=0.13
* device instance $171 r0 *1 477.391,393.708 sg13_lv_nmos
M$171 VSS \$624 \$622 VSS sg13_lv_nmos W=0.74 L=0.13
* device instance $172 r0 *1 459.485,394.652 sg13_lv_nmos
M$172 PAD|VLO \$621 \$630 VSS sg13_lv_nmos W=0.5 L=0.13
* device instance $173 r0 *1 482.137,394.652 sg13_lv_nmos
M$173 PAD|VLO \$622 \$663 VSS sg13_lv_nmos W=0.5 L=0.13
* device instance $174 r0 *1 1060.995,397.48 sg13_lv_nmos
M$174 \$641 \$643 VSS VSS sg13_lv_nmos W=2.75 L=0.13
* device instance $175 r0 *1 458.328,399.377 sg13_lv_nmos
M$175 \$630 \$650 CORE$5 VSS sg13_lv_nmos W=2.0 L=0.13
* device instance $176 r0 *1 483.294,399.377 sg13_lv_nmos
M$176 \$798 \$692 \$663 VSS sg13_lv_nmos W=2.0 L=0.13
* device instance $177 r0 *1 1060.995,400.99 sg13_lv_nmos
M$177 \$686 \$643 VSS VSS sg13_lv_nmos W=2.75 L=0.13
* device instance $178 r0 *1 443.526,403.27 sg13_lv_nmos
M$178 \$753 \$692 \$657 VSS sg13_lv_nmos W=2.0 L=0.13
* device instance $179 r0 *1 448.102,403.27 sg13_lv_nmos
M$179 \$657 \$893 \$695 VSS sg13_lv_nmos W=2.0 L=0.13
* device instance $180 r0 *1 493.52,403.27 sg13_lv_nmos
M$180 \$696 \$843 \$615 VSS sg13_lv_nmos W=2.0 L=0.13
* device instance $181 r0 *1 498.096,403.27 sg13_lv_nmos
M$181 \$615 \$650 \$754 VSS sg13_lv_nmos W=2.0 L=0.13
* device instance $182 r0 *1 458.723,405.86 sg13_lv_nmos
M$182 VSS \$650 \$651 VSS sg13_lv_nmos W=0.74 L=0.13
* device instance $183 r0 *1 462.071,405.955 sg13_lv_nmos
M$183 VSS \$643 \$720 VSS sg13_lv_nmos W=0.55 L=0.12999999999999998
* device instance $184 r0 *1 462.921,405.86 sg13_lv_nmos
M$184 VSS \$692 \$726 VSS sg13_lv_nmos W=0.74 L=0.13
* device instance $185 r0 *1 463.231,405.86 sg13_lv_nmos
M$185 \$726 \$720 \$710 VSS sg13_lv_nmos W=0.74 L=0.13
* device instance $186 r0 *1 478.391,405.86 sg13_lv_nmos
M$186 \$711 \$721 \$728 VSS sg13_lv_nmos W=0.74 L=0.13
* device instance $187 r0 *1 478.701,405.86 sg13_lv_nmos
M$187 \$728 \$650 VSS VSS sg13_lv_nmos W=0.74 L=0.13
* device instance $188 r0 *1 479.551,405.955 sg13_lv_nmos
M$188 VSS \$625 \$721 VSS sg13_lv_nmos W=0.55 L=0.12999999999999998
* device instance $189 r0 *1 482.899,405.86 sg13_lv_nmos
M$189 \$652 \$692 VSS VSS sg13_lv_nmos W=0.74 L=0.13
* device instance $190 r0 *1 454.041,411.248 sg13_lv_nmos
M$190 \$695 \$695 VSS VSS sg13_lv_nmos W=2.5 L=1.5
* device instance $191 r0 *1 487.581,411.248 sg13_lv_nmos
M$191 VSS \$696 \$696 VSS sg13_lv_nmos W=2.5 L=1.5
* device instance $192 r0 *1 454.041,420.794 sg13_lv_nmos
M$192 \$798 \$614 VSS VSS sg13_lv_nmos W=2.5 L=1.5
* device instance $193 r0 *1 487.581,420.794 sg13_lv_nmos
M$193 VSS \$616 \$794 VSS sg13_lv_nmos W=2.5 L=1.5
* device instance $194 r0 *1 458.979,423.251 sg13_lv_nmos
M$194 \$798 \$172 \$753 VSS sg13_lv_nmos W=2.0 L=0.13
* device instance $195 r0 *1 463.555,423.251 sg13_lv_nmos
M$195 \$753 \$650 \$614 VSS sg13_lv_nmos W=2.0 L=0.13
* device instance $196 r0 *1 478.067,423.251 sg13_lv_nmos
M$196 \$616 \$692 \$754 VSS sg13_lv_nmos W=2.0 L=0.13
* device instance $197 r0 *1 482.643,423.251 sg13_lv_nmos
M$197 \$754 \$172 \$794 VSS sg13_lv_nmos W=2.0 L=0.13
* device instance $198 r0 *1 452.732,430.97 sg13_lv_nmos
M$198 \$838 \$885 VSS VSS sg13_lv_nmos W=1.44 L=0.13
* device instance $200 r0 *1 453.762,430.97 sg13_lv_nmos
M$200 \$838 \$894 \$847 VSS sg13_lv_nmos W=1.44 L=0.13
* device instance $202 r0 *1 477.918,430.97 sg13_lv_nmos
M$202 \$845 \$844 VSS VSS sg13_lv_nmos W=1.44 L=0.13
* device instance $204 r0 *1 478.948,430.97 sg13_lv_nmos
M$204 \$845 \$842 \$848 VSS sg13_lv_nmos W=1.44 L=0.13
* device instance $206 r0 *1 455.996,430.995 sg13_lv_nmos
M$206 VSS \$847 \$839 VSS sg13_lv_nmos W=2.96 L=0.13
* device instance $210 r0 *1 459.411,430.995 sg13_lv_nmos
M$210 VSS \$839 \$840 VSS sg13_lv_nmos W=2.96 L=0.13
* device instance $214 r0 *1 462.647,430.995 sg13_lv_nmos
M$214 VSS \$840 \$841 VSS sg13_lv_nmos W=2.96 L=0.13
* device instance $218 r0 *1 466.172,430.995 sg13_lv_nmos
M$218 VSS \$841 \$842 VSS sg13_lv_nmos W=2.96 L=0.13
* device instance $222 r0 *1 470.029,430.995 sg13_lv_nmos
M$222 VSS \$842 \$843 VSS sg13_lv_nmos W=2.96 L=0.13
* device instance $226 r0 *1 473.998,430.995 sg13_lv_nmos
M$226 VSS \$843 \$844 VSS sg13_lv_nmos W=2.96 L=0.13
* device instance $230 r0 *1 481.602,430.995 sg13_lv_nmos
M$230 VSS \$848 \$846 VSS sg13_lv_nmos W=2.96 L=0.13
* device instance $234 r0 *1 484.998,430.995 sg13_lv_nmos
M$234 VSS \$846 \$692 VSS sg13_lv_nmos W=5.920000000000001 L=0.13
* device instance $242 r0 *1 446.843,438.963 sg13_lv_nmos
M$242 VSS \$174 \$885 VSS sg13_lv_nmos W=1.48 L=0.13
* device instance $244 r0 *1 449.364,438.963 sg13_lv_nmos
M$244 VSS \$885 \$886 VSS sg13_lv_nmos W=1.48 L=0.13
* device instance $246 r0 *1 452.01,438.938 sg13_lv_nmos
M$246 \$887 \$886 VSS VSS sg13_lv_nmos W=1.44 L=0.13
* device instance $248 r0 *1 453.04,438.938 sg13_lv_nmos
M$248 \$887 \$844 \$888 VSS sg13_lv_nmos W=1.44 L=0.13
* device instance $250 r0 *1 455.373,438.964 sg13_lv_nmos
M$250 VSS \$888 \$889 VSS sg13_lv_nmos W=2.96 L=0.13
* device instance $254 r0 *1 459.841,438.964 sg13_lv_nmos
M$254 VSS \$889 \$890 VSS sg13_lv_nmos W=2.96 L=0.13
* device instance $258 r0 *1 463.257,438.964 sg13_lv_nmos
M$258 VSS \$890 \$891 VSS sg13_lv_nmos W=2.96 L=0.13
* device instance $262 r0 *1 466.777,438.964 sg13_lv_nmos
M$262 VSS \$891 \$892 VSS sg13_lv_nmos W=2.96 L=0.13
* device instance $266 r0 *1 470.634,438.964 sg13_lv_nmos
M$266 VSS \$892 \$893 VSS sg13_lv_nmos W=2.96 L=0.13
* device instance $270 r0 *1 474.603,438.964 sg13_lv_nmos
M$270 VSS \$893 \$894 VSS sg13_lv_nmos W=2.96 L=0.13
* device instance $274 r0 *1 478.273,438.939 sg13_lv_nmos
M$274 \$895 \$894 VSS VSS sg13_lv_nmos W=1.44 L=0.13
* device instance $276 r0 *1 479.303,438.939 sg13_lv_nmos
M$276 \$895 \$892 \$896 VSS sg13_lv_nmos W=1.44 L=0.13
* device instance $278 r0 *1 481.957,438.964 sg13_lv_nmos
M$278 VSS \$896 \$897 VSS sg13_lv_nmos W=2.96 L=0.13
* device instance $282 r0 *1 485.353,438.964 sg13_lv_nmos
M$282 VSS \$897 \$650 VSS sg13_lv_nmos W=5.920000000000001 L=0.13
* device instance $290 r0 *1 450.192,450.371 sg13_lv_nmos
M$290 VSS \$995 \$1017 VSS sg13_lv_nmos W=2.0 L=0.13
* device instance $291 r0 *1 450.192,456.171 sg13_lv_nmos
M$291 VSS \$950 \$1048 VSS sg13_lv_nmos W=2.0 L=0.13
* device instance $292 r0 *1 449.324,446.442 sg13_lv_nmos
M$292 VSS \$980 \$625 VSS sg13_lv_nmos W=1.48 L=0.13
* device instance $294 r0 *1 450.344,446.492 sg13_lv_nmos
M$294 VSS \$1021 \$980 VSS sg13_lv_nmos W=0.64 L=0.13
* device instance $295 r0 *1 450.234,459.67 sg13_lv_nmos
M$295 \$1051 \$1021 \$1048 VSS sg13_lv_nmos W=2.0 L=0.13
* device instance $296 r0 *1 450.234,453.87 sg13_lv_nmos
M$296 \$1021 \$1051 \$1017 VSS sg13_lv_nmos W=2.0 L=0.13
* device instance $297 r0 *1 452.324,446.262 sg13_lv_nmos
M$297 \$960 \$1021 \$970 VSS sg13_lv_nmos W=0.42 L=0.13
* device instance $298 r0 *1 452.634,446.262 sg13_lv_nmos
M$298 \$970 \$953 VSS VSS sg13_lv_nmos W=0.42 L=0.13
* device instance $299 r0 *1 453.214,446.647 sg13_lv_nmos
M$299 VSS \$981 \$955 VSS sg13_lv_nmos W=0.74 L=0.13
* device instance $300 r0 *1 454.304,446.327 sg13_lv_nmos
M$300 VSS \$953 \$971 VSS sg13_lv_nmos W=0.42 L=0.13
* device instance $301 r0 *1 454.614,446.327 sg13_lv_nmos
M$301 \$971 \$955 \$961 VSS sg13_lv_nmos W=0.42 L=0.13
* device instance $302 r0 *1 455.389,447.052 sg13_lv_nmos
M$302 \$960 \$954 \$981 VSS sg13_lv_nmos W=0.42 L=0.13
* device instance $303 r0 *1 455.899,447.052 sg13_lv_nmos
M$303 \$981 \$991 \$961 VSS sg13_lv_nmos W=0.42 L=0.13
* device instance $304 r0 *1 457.159,446.527 sg13_lv_nmos
M$304 VSS \$954 \$991 VSS sg13_lv_nmos W=0.74 L=0.13
* device instance $305 r0 *1 458.259,446.527 sg13_lv_nmos
M$305 VSS \$650 \$954 VSS sg13_lv_nmos W=0.74 L=0.13
* device instance $306 r0 *1 459.469,446.647 sg13_lv_nmos
M$306 \$963 \$954 \$962 VSS sg13_lv_nmos W=0.42 L=0.13
* device instance $307 r0 *1 460.004,446.487 sg13_lv_nmos
M$307 \$955 \$991 \$963 VSS sg13_lv_nmos W=0.74 L=0.13
* device instance $308 r0 *1 461.054,446.262 sg13_lv_nmos
M$308 \$962 \$964 VSS VSS sg13_lv_nmos W=0.42 L=0.13
* device instance $309 r0 *1 461.564,446.262 sg13_lv_nmos
M$309 VSS \$953 \$973 VSS sg13_lv_nmos W=0.42 L=0.13
* device instance $310 r0 *1 461.874,446.262 sg13_lv_nmos
M$310 \$973 \$963 \$964 VSS sg13_lv_nmos W=0.42 L=0.13
* device instance $311 r0 *1 463.914,446.372 sg13_lv_nmos
M$311 VSS \$963 \$966 VSS sg13_lv_nmos W=0.64 L=0.13
* device instance $312 r0 *1 462.894,446.422 sg13_lv_nmos
M$312 VSS \$963 \$965 VSS sg13_lv_nmos W=1.48 L=0.13
* device instance $314 r0 *1 464.934,446.422 sg13_lv_nmos
M$314 VSS \$966 \$643 VSS sg13_lv_nmos W=1.48 L=0.13
* device instance $316 r0 *1 467.705,446.442 sg13_lv_nmos
M$316 VSS \$172 \$953 VSS sg13_lv_nmos W=0.74 L=0.13
* device instance $317 r0 *1 469.14,446.442 sg13_lv_nmos
M$317 VSS \$650 \$967 VSS sg13_lv_nmos W=0.74 L=0.13
* device instance $318 r0 *1 469.693,451.053 sg13_lv_nmos
M$318 \$968 \$650 \$794 VSS sg13_lv_nmos W=2.0 L=0.13
* device instance $319 r0 *1 480.059,445.671 sg13_lv_nmos
M$319 VSS \$968 \$948 VSS sg13_lv_nmos W=2.0 L=1.0
* device instance $320 r0 *1 480.059,451.332 sg13_lv_nmos
M$320 VSS \$696 \$1010 VSS sg13_lv_nmos W=2.0 L=1.0
* device instance $321 r0 *1 483.419,452.999 sg13_lv_nmos
M$321 \$995 \$950 \$1022 VSS sg13_lv_nmos W=2.0 L=0.13
* device instance $322 r0 *1 483.419,447.338 sg13_lv_nmos
M$322 \$950 \$995 \$969 VSS sg13_lv_nmos W=2.0 L=0.13
* device instance $323 r0 *1 485.064,452.999 sg13_lv_nmos
M$323 \$1022 \$692 \$1010 VSS sg13_lv_nmos W=2.0 L=0.13
* device instance $324 r0 *1 485.064,447.338 sg13_lv_nmos
M$324 \$969 \$692 \$948 VSS sg13_lv_nmos W=2.0 L=0.13
* device instance $325 r0 *1 1060.995,497.48 sg13_lv_nmos
M$325 \$1090 \$1092 VSS VSS sg13_lv_nmos W=2.75 L=0.13
* device instance $326 r0 *1 1060.995,500.99 sg13_lv_nmos
M$326 \$1118 \$1092 VSS VSS sg13_lv_nmos W=2.75 L=0.13
* device instance $327 r0 *1 485.618,504.427 sg13_lv_nmos
M$327 \$1142 \$1152 \$1158 VSS sg13_lv_nmos W=0.42 L=0.13
* device instance $328 r0 *1 486.008,504.427 sg13_lv_nmos
M$328 \$1158 \$1143 VSS VSS sg13_lv_nmos W=0.42 L=0.13
* device instance $329 r0 *1 486.568,504.427 sg13_lv_nmos
M$329 VSS \$1129 \$1157 VSS sg13_lv_nmos W=0.42 L=0.13
* device instance $330 r0 *1 486.923,504.427 sg13_lv_nmos
M$330 \$1157 \$1142 \$1143 VSS sg13_lv_nmos W=0.42 L=0.13
* device instance $331 r0 *1 483.978,504.537 sg13_lv_nmos
M$331 VSS \$1140 \$1141 VSS sg13_lv_nmos W=0.64 L=0.13
* device instance $332 r0 *1 484.648,504.537 sg13_lv_nmos
M$332 \$1141 \$1135 \$1142 VSS sg13_lv_nmos W=0.64 L=0.13
* device instance $333 r0 *1 482.098,504.652 sg13_lv_nmos
M$333 \$1139 \$1152 \$1140 VSS sg13_lv_nmos W=0.42 L=0.13
* device instance $334 r0 *1 482.608,504.652 sg13_lv_nmos
M$334 \$1140 \$1135 \$1156 VSS sg13_lv_nmos W=0.42 L=0.13
* device instance $335 r0 *1 482.998,504.652 sg13_lv_nmos
M$335 \$1156 \$1141 \$1155 VSS sg13_lv_nmos W=0.42 L=0.13
* device instance $336 r0 *1 483.358,504.652 sg13_lv_nmos
M$336 VSS \$1129 \$1155 VSS sg13_lv_nmos W=0.42 L=0.13
* device instance $337 r0 *1 476.768,504.592 sg13_lv_nmos
M$337 VSS \$1313 \$1138 VSS sg13_lv_nmos W=0.74 L=0.13
* device instance $338 r0 *1 487.963,504.592 sg13_lv_nmos
M$338 VSS \$1142 \$1144 VSS sg13_lv_nmos W=0.74 L=0.13
* device instance $339 r0 *1 489.163,504.497 sg13_lv_nmos
M$339 \$1145 \$1142 VSS VSS sg13_lv_nmos W=0.55 L=0.12999999999999998
* device instance $340 r0 *1 489.703,504.592 sg13_lv_nmos
M$340 VSS \$1145 \$1146 VSS sg13_lv_nmos W=0.74 L=0.13
* device instance $341 r0 *1 491.898,504.592 sg13_lv_nmos
M$341 VSS \$1146 \$1092 VSS sg13_lv_nmos W=1.48 L=0.13
* device instance $343 r0 *1 494.693,504.591 sg13_lv_nmos
M$343 VSS \$172 \$1129 VSS sg13_lv_nmos W=0.74 L=0.13
* device instance $344 r0 *1 496.608,504.591 sg13_lv_nmos
M$344 VSS \$1159 \$1147 VSS sg13_lv_nmos W=1.48 L=0.13
* device instance $346 r0 *1 497.628,504.641 sg13_lv_nmos
M$346 VSS \$1224 \$1159 VSS sg13_lv_nmos W=0.64 L=0.13
* device instance $347 r0 *1 478.818,504.452 sg13_lv_nmos
M$347 \$1139 \$1224 \$1154 VSS sg13_lv_nmos W=0.42 L=0.13
* device instance $348 r0 *1 479.188,504.452 sg13_lv_nmos
M$348 \$1154 \$1129 VSS VSS sg13_lv_nmos W=0.42 L=0.13
* device instance $349 r0 *1 480.333,504.767 sg13_lv_nmos
M$349 VSS \$1313 \$1152 VSS sg13_lv_nmos W=0.74 L=0.13
* device instance $350 r0 *1 480.843,504.767 sg13_lv_nmos
M$350 VSS \$1152 \$1135 VSS sg13_lv_nmos W=0.74 L=0.13
* device instance $351 r0 *1 481.503,510.997 sg13_lv_nmos
M$351 VSS \$1194 \$1199 VSS sg13_lv_nmos W=2.0 L=1.0
* device instance $352 r0 *1 481.703,513.099 sg13_lv_nmos
M$352 \$1199 \$1254 \$1205 VSS sg13_lv_nmos W=2.0 L=0.13
* device instance $353 r0 *1 483.503,509.467 sg13_lv_nmos
M$353 \$1189 \$1313 \$1190 VSS sg13_lv_nmos W=2.0 L=0.13
* device instance $354 r0 *1 482.903,513.099 sg13_lv_nmos
M$354 \$1205 \$1207 \$1206 VSS sg13_lv_nmos W=2.0 L=0.13
* device instance $355 r0 *1 484.103,513.099 sg13_lv_nmos
M$355 \$1207 \$1206 \$1208 VSS sg13_lv_nmos W=2.0 L=0.13
* device instance $356 r0 *1 485.503,510.997 sg13_lv_nmos
M$356 VSS \$1190 \$1200 VSS sg13_lv_nmos W=2.0 L=1.0
* device instance $357 r0 *1 485.303,513.099 sg13_lv_nmos
M$357 \$1208 \$1254 \$1200 VSS sg13_lv_nmos W=2.0 L=0.13
* device instance $358 r0 *1 488.561,513.099 sg13_lv_nmos
M$358 VSS \$1207 \$1209 VSS sg13_lv_nmos W=2.0 L=0.13
* device instance $359 r0 *1 489.761,513.099 sg13_lv_nmos
M$359 \$1209 \$1224 \$1233 VSS sg13_lv_nmos W=2.0 L=0.13
* device instance $360 r0 *1 490.961,513.099 sg13_lv_nmos
M$360 \$1224 \$1233 \$1210 VSS sg13_lv_nmos W=2.0 L=0.13
* device instance $361 r0 *1 492.161,513.099 sg13_lv_nmos
M$361 \$1210 \$1206 VSS VSS sg13_lv_nmos W=2.0 L=0.13
* device instance $362 r0 *1 438.155,518.846 sg13_lv_nmos
M$362 VSS \$1245 \$1246 VSS sg13_lv_nmos W=2.96 L=0.13
* device instance $366 r0 *1 441.035,518.846 sg13_lv_nmos
M$366 VSS \$1246 \$1247 VSS sg13_lv_nmos W=2.96 L=0.13
* device instance $370 r0 *1 443.915,518.846 sg13_lv_nmos
M$370 VSS \$1247 \$1248 VSS sg13_lv_nmos W=2.96 L=0.13
* device instance $374 r0 *1 446.795,518.846 sg13_lv_nmos
M$374 VSS \$1248 \$1249 VSS sg13_lv_nmos W=2.96 L=0.13
* device instance $378 r0 *1 449.675,518.846 sg13_lv_nmos
M$378 VSS \$1249 \$1250 VSS sg13_lv_nmos W=2.96 L=0.13
* device instance $382 r0 *1 452.555,518.846 sg13_lv_nmos
M$382 VSS \$1250 \$1251 VSS sg13_lv_nmos W=2.96 L=0.13
* device instance $386 r0 *1 458.315,518.846 sg13_lv_nmos
M$386 VSS \$1252 \$1253 VSS sg13_lv_nmos W=2.96 L=0.13
* device instance $390 r0 *1 461.135,518.846 sg13_lv_nmos
M$390 VSS \$1253 \$1254 VSS sg13_lv_nmos W=5.920000000000001 L=0.13
* device instance $398 r0 *1 431.455,521.281 sg13_lv_nmos
M$398 VSS \$173 \$1256 VSS sg13_lv_nmos W=1.48 L=0.13
* device instance $400 r0 *1 433.375,521.281 sg13_lv_nmos
M$400 VSS \$1256 \$1302 VSS sg13_lv_nmos W=1.48 L=0.13
* device instance $402 r0 *1 435.35,518.871 sg13_lv_nmos
M$402 \$1271 \$1309 VSS VSS sg13_lv_nmos W=1.44 L=0.13
* device instance $404 r0 *1 436.38,518.871 sg13_lv_nmos
M$404 \$1271 \$1256 \$1245 VSS sg13_lv_nmos W=1.44 L=0.13
* device instance $406 r0 *1 435.35,521.256 sg13_lv_nmos
M$406 \$1303 \$1251 VSS VSS sg13_lv_nmos W=1.44 L=0.13
* device instance $408 r0 *1 436.38,521.256 sg13_lv_nmos
M$408 \$1303 \$1302 \$1330 VSS sg13_lv_nmos W=1.44 L=0.13
* device instance $410 r0 *1 438.155,521.281 sg13_lv_nmos
M$410 VSS \$1330 \$1304 VSS sg13_lv_nmos W=2.96 L=0.13
* device instance $414 r0 *1 441.035,521.281 sg13_lv_nmos
M$414 VSS \$1304 \$1305 VSS sg13_lv_nmos W=2.96 L=0.13
* device instance $418 r0 *1 443.915,521.281 sg13_lv_nmos
M$418 VSS \$1305 \$1306 VSS sg13_lv_nmos W=2.96 L=0.13
* device instance $422 r0 *1 446.795,521.281 sg13_lv_nmos
M$422 VSS \$1306 \$1307 VSS sg13_lv_nmos W=2.96 L=0.13
* device instance $426 r0 *1 449.675,521.281 sg13_lv_nmos
M$426 VSS \$1307 \$1308 VSS sg13_lv_nmos W=2.96 L=0.13
* device instance $430 r0 *1 452.555,521.281 sg13_lv_nmos
M$430 VSS \$1308 \$1309 VSS sg13_lv_nmos W=2.96 L=0.13
* device instance $434 r0 *1 455.51,518.871 sg13_lv_nmos
M$434 \$1272 \$1251 VSS VSS sg13_lv_nmos W=1.44 L=0.13
* device instance $436 r0 *1 456.54,518.871 sg13_lv_nmos
M$436 \$1272 \$1249 \$1252 VSS sg13_lv_nmos W=1.44 L=0.13
* device instance $438 r0 *1 455.51,521.256 sg13_lv_nmos
M$438 \$1310 \$1309 VSS VSS sg13_lv_nmos W=1.44 L=0.13
* device instance $440 r0 *1 456.54,521.256 sg13_lv_nmos
M$440 \$1310 \$1307 \$1311 VSS sg13_lv_nmos W=1.44 L=0.13
* device instance $442 r0 *1 458.315,521.281 sg13_lv_nmos
M$442 VSS \$1311 \$1312 VSS sg13_lv_nmos W=2.96 L=0.13
* device instance $446 r0 *1 461.135,521.281 sg13_lv_nmos
M$446 VSS \$1312 \$1313 VSS sg13_lv_nmos W=5.920000000000001 L=0.13
* device instance $454 r0 *1 431.5,535.261 sg13_lv_nmos
M$454 VSS \$1313 \$1354 VSS sg13_lv_nmos W=0.74 L=0.13
* device instance $455 r0 *1 432.935,535.356 sg13_lv_nmos
M$455 VSS \$1146 \$1355 VSS sg13_lv_nmos W=0.55 L=0.12999999999999998
* device instance $456 r0 *1 433.785,535.261 sg13_lv_nmos
M$456 VSS \$1254 \$1373 VSS sg13_lv_nmos W=0.74 L=0.13
* device instance $457 r0 *1 434.095,535.261 sg13_lv_nmos
M$457 \$1373 \$1355 \$1356 VSS sg13_lv_nmos W=0.74 L=0.13
* device instance $458 r0 *1 434.07,553.206 sg13_lv_nmos
M$458 \$1404 \$1358 PAD|VLO VSS sg13_lv_nmos W=0.5 L=0.13
* device instance $459 r0 *1 435.785,535.421 sg13_lv_nmos
M$459 \$1357 \$1254 \$1370 VSS sg13_lv_nmos W=0.64 L=0.13
* device instance $460 r0 *1 436.295,535.421 sg13_lv_nmos
M$460 VSS \$1146 \$1370 VSS sg13_lv_nmos W=0.64 L=0.13
* device instance $461 r0 *1 436.805,535.371 sg13_lv_nmos
M$461 VSS \$1357 \$1358 VSS sg13_lv_nmos W=0.74 L=0.13
* device instance $462 r0 *1 436.815,553.216 sg13_lv_nmos
M$462 \$1404 \$1313 CORE$6 VSS sg13_lv_nmos W=2.0 L=0.13
* device instance $463 r0 *1 443.55,535.276 sg13_lv_nmos
M$463 VSS \$1359 \$1359 VSS sg13_lv_nmos W=2.5 L=1.5
* device instance $464 r0 *1 444.09,553.171 sg13_lv_nmos
M$464 \$1359 \$1308 \$1414 VSS sg13_lv_nmos W=2.0 L=0.13
* device instance $465 r0 *1 449.83,597.155 sg13_lv_nmos
M$465 \$1481 \$1535 VSS VSS sg13_lv_nmos W=1.44 L=0.13
* device instance $467 r0 *1 450.86,597.155 sg13_lv_nmos
M$467 \$1481 \$1491 \$1492 VSS sg13_lv_nmos W=1.44 L=0.13