** sch_path: /foss/designs/EE628/5_Design/3_Real_circuits/UHEE628_S2024.sch
.subckt UHEE628_S2024 vldo ck1 ck3 avdd ck2 VDD vref out1 in1 in2 out2 out3 in3 iovdd vhi vlo out4 in4 out5 in5 out6 in6 ck6 ck5
+ ck4 res VSS
*.PININFO in1:I in2:I in3:I in4:I in5:I in6:I iovdd:B vlo:B avdd:B out1:O out2:O out3:O out4:O out5:O out6:O VSS:B VDD:B vldo:B
*+ ck3:I ck2:I ck1:I vref:I res:I ck4:I ck5:I ck6:I vhi:B


***.subckt padring vref ck3 vldo ck1 ck2 ck1_c ck3_c vref_c ck2_c out1_c in1 out1 in2 out2 out2_c in2_c vdd out3 in3_c in3 out3_c
***+  vlo out4 in4_c in4 out4_c out5 in5_c out5_c in5 in6 in6_c out6 out6_c ck5_c ck4_c res_c ck6_c ck6 ck5 ck4 res in1_c vss

*** vref ck3 vldo ck1 ck2 ck1_c ck3_c vref_c ck2_c out1_c in1 out1 in2 out2 out2_c in2_c vdd out3 in3_c in3 out3_c avdd iovdd vhi
x10 vref ck3 vldo ck1 ck2 ck1_c ck3_c net1 ck2_c   out1_c in1 out1 in2 out2 out2_c in2_c VDD out3 in3_c in3 out3_c avdd iovdd vhi
+   vlo out4 in4_c in4 out4_c out5 in5_c out5_c in5 in6 in6_c out6 out6_c ck5_c ck4_c res_c ck6_c ck6 ck5 ck4 res in1_c VSS   padring
*** vlo out4 in4_c in4 out4_c out5 in5_c out5_c in5 in6 in6_c out6 out6_c ck5_c ck4_c res_c ck6_c ck6 ck5 ck4 res in1_c vss


***x1 vhi vlo avdd VSS in1_c out1_c res_c ck1_c Team1
***x2 vhi vlo avdd VSS in2_c out2_c res_c ck2_c template_idsm2

***.subckt IDSM2_T4 vhi vlo vdda vin   dout   res   clkin
x4                  vhi vlo avdd in4_c out4_c res_c ck4_c  IDSM2_T4


***x5 vhi vlo avdd VSS in5_c out5_c res_c ck5_c Team5
* noconn #net1
***x6 vhi vlo avdd VSS in6_c out6_c res_c ck6_c Team6
***x7 vhi avdd res_c in3_c vlo out3_c VSS ck3_c Team3
.ends

* expanding   symbol:  padring.sym # of pins=47
** sym_path: /foss/designs/EE628/5_Design/3_Real_circuits/padring.sym
** sch_path: /foss/designs/EE628/5_Design/3_Real_circuits/padring.sch
.subckt padring vref ck3 vldo ck1 ck2 ck1_c ck3_c vref_c ck2_c out1_c in1 out1 in2 out2 out2_c in2_c vdd out3 in3_c in3 out3_c
+ avdd iovdd vhi vlo out4 in4_c in4 out4_c out5 in5_c out5_c in5 in6 in6_c out6 out6_c ck5_c ck4_c res_c ck6_c ck6 ck5 ck4 res in1_c vss
*.PININFO in1:I in2:I in3:I vhi:B vlo:B in4:I in5:I in6:I out1:O out2:O out3:O out4:O out5:O out6:O res:I ck4:I ck5:I ck6:I vref:I
*+ ck3:I ck2:I ck1:I in1_c:O in2_c:O in3_c:O in4_c:O in5_c:O in6_c:O res_c:O ck4_c:O ck5_c:O ck6_c:O out1_c:I out2_c:I out3_c:I out4_c:I
*+ out5_c:I out6_c:I vref_c:O ck3_c:O ck2_c:O ck1_c:O vldo:B avdd:B vss:B iovdd:B vdd:B
xp1 vss avdd vss avdd in1 in1_c sg13g2_IOPadAnalog
xp26 vss vdd vss iovdd ck1_c ck1 sg13g2_IOPadIn
xp24 vss vdd vss iovdd out1_c out1 sg13g2_IOPadOut16mA
xp32 vss avdd vss avdd sg13g2_IOPadVdd
xp9 vss avdd vss avdd sg13g2_IOPadVss
xp2 vss avdd vss avdd in2 in2_c sg13g2_IOPadAnalog
xp3 vss avdd vss avdd in3 in3_c sg13g2_IOPadAnalog
xp4 vss avdd vss avdd vhi net1 sg13g2_IOPadAnalog
xp5 vss avdd vss avdd vlo net2 sg13g2_IOPadAnalog
xp6 vss avdd vss avdd in4 in4_c sg13g2_IOPadAnalog
xp7 vss avdd vss avdd in5 in5_c sg13g2_IOPadAnalog
xp8 vss avdd vss avdd in6 in6_c sg13g2_IOPadAnalog
xp23 vss vdd vss iovdd out2_c out2 sg13g2_IOPadOut16mA
xp22 vss vdd vss iovdd out3_c out3 sg13g2_IOPadOut16mA
xp21 vss vdd vss iovdd sg13g2_IOPadIOVdd
xp20 vss vdd vss iovdd sg13g2_IOPadIOVss
xp19 vss vdd vss iovdd out4_c out4 sg13g2_IOPadOut16mA
xp18 vss vdd vss iovdd out5_c out5 sg13g2_IOPadOut16mA
xp17 vss vdd vss iovdd out6_c out6 sg13g2_IOPadOut16mA
xp25 vss vdd vss iovdd sg13g2_IOPadVdd
xp16 vss vdd vss iovdd sg13g2_IOPadVss
xp27 vss vdd vss iovdd ck2_c ck2 sg13g2_IOPadIn
xp28 vss vdd vss iovdd ck3_c ck3 sg13g2_IOPadIn
xp29 vss vdd vss iovdd sg13g2_IOPadIOVdd
xp30 vss avdd vss avdd vldo net3 sg13g2_IOPadAnalog
xp31 vss avdd vss avdd vref vref_c sg13g2_IOPadAnalog
xp15 vss vdd vss iovdd ck6_c ck6 sg13g2_IOPadIn
xp14 vss vdd vss iovdd ck5_c ck5 sg13g2_IOPadIn
xp13 vss vdd vss iovdd ck4_c ck4 sg13g2_IOPadIn
xp12 vss vdd vss iovdd sg13g2_IOPadIOVss
xp11 vss vdd vss iovdd res_c res sg13g2_IOPadIn
xp10 vss avdd vss avdd sg13g2_IOPadVss
* noconn #net1
* noconn #net2
* noconn #net3
.ends


* expanding   symbol:  /foss/designs/EE628/5_Design/3_Real_circuits/template_idsm2.sym # of pins=8
** sym_path: /foss/designs/EE628/5_Design/3_Real_circuits/template_idsm2.sym
** sch_path: /foss/designs/EE628/5_Design/3_Real_circuits/template_idsm2.sch
.subckt template_idsm2 vhi vlo vdda vssa vin dout res clkin
*.PININFO clkin:I res:I vin:I dout:O vssa:I vdda:I vlo:I vhi:I
x4 p1e p1 clkin p2 p2e template_clkgen
x1 res p1e p1 p2 vhi vdda vout1 vin vssa net1 vlo net3 template_stage
x2 res p2e p2 p1 vhi vdda vout2 vout1 vssa net2 vlo vmid2 template_stage
x3 vdda p2 net2 p1 net1 vout2 vmid2 vssa res dout template_comp
* noconn #net3
.ends


* expanding   symbol:  template_clkgen.sym # of pins=5
** sym_path: /foss/designs/EE628/5_Design/3_Real_circuits/template_clkgen.sym
** sch_path: /foss/designs/EE628/5_Design/3_Real_circuits/template_clkgen.sch
.subckt template_clkgen p1e p1 clkin p2 p2e
*.PININFO clkin:I p1e:O p1:O p2:O p2e:O
xn1 clkinbb b2 VDD VSS net11 sg13g2_nand2_2
xi7 net6 VDD VSS net9 sg13g2_inv_4
xi1 clkin VDD VSS clkinb sg13g2_inv_2
xi2 clkinb VDD VSS clkinbb sg13g2_inv_2
xn2 clkinb b1 VDD VSS net12 sg13g2_nand2_2
xi13 p1e VDD VSS b1 sg13g2_inv_4
xi8 net8 VDD VSS net10 sg13g2_inv_4
xi14 p2e VDD VSS b2 sg13g2_inv_4
xn3 a1 b1 VDD VSS net1 sg13g2_nand2_2
xn4 a2 b2 VDD VSS net3 sg13g2_nand2_2
xi11 a1 VDD VSS p1e sg13g2_inv_4
xi9 net9 VDD VSS a1 sg13g2_inv_4
x12 a2 VDD VSS p2e sg13g2_inv_4
xi10 net10 VDD VSS a2 sg13g2_inv_4
xi15 net1 VDD VSS net2 sg13g2_inv_4
xi17 net2 VDD VSS p1 sg13g2_inv_8
xi16 net3 VDD VSS net4 sg13g2_inv_4
xi18 net4 VDD VSS p2 sg13g2_inv_8
xi3 net11 VDD VSS net5 sg13g2_inv_4
xi5 net5 VDD VSS net6 sg13g2_inv_4
xi4 net12 VDD VSS net7 sg13g2_inv_4
xi6 net7 VDD VSS net8 sg13g2_inv_4
.ends


* expanding   symbol:  template_stage.sym # of pins=12
** sym_path: /foss/designs/EE628/5_Design/3_Real_circuits/template_stage.sym
** sch_path: /foss/designs/EE628/5_Design/3_Real_circuits/template_stage.sch
.subckt template_stage res pse ps pr vhi vdda vout vin vssa d vlo vmid
*.PININFO vout:O vdda:B res:I vin:I pse:I ps:I pr:I d:I vssa:B vhi:B vlo:B vmid:O
Mn vout vx3 vssa vssa sg13_lv_nmos L=1.5u W=2.5u ng=1 m=1
Mp vout vx3 vdda vdda sg13_lv_pmos L=1.5u W=10u ng=4 m=1
Mn3 vx1 gn vlo vssa sg13_lv_nmos L=0.13u W=0.5u ng=1 m=1
Mn4 vout res vx4 vssa sg13_lv_nmos L=0.13u W=2u ng=1 m=1
x1 ps VDD VSS psb sg13g2_inv_1
Mp1 vx1 psb vin vdda sg13_lv_pmos L=0.13u W=6u ng=3 m=1
Mn5 vx1 ps vin vssa sg13_lv_nmos L=0.13u W=2u ng=1 m=1
Mn1 vx4 pr vx2 vssa sg13_lv_nmos L=0.13u W=2u ng=1 m=1
Mn2 vx4 ps vx3 vssa sg13_lv_nmos L=0.13u W=2u ng=1 m=1
Mn6 vx2 pse vmid vssa sg13_lv_nmos L=0.13u W=2u ng=1 m=1
Mn7 vmid vmid vssa vssa sg13_lv_nmos L=1.5u W=2.5u ng=1 m=1
Mp2 vmid vmid vdda vdda sg13_lv_pmos L=1.5u W=10u ng=4 m=1
x2 pr d VDD VSS gn sg13g2_and2_1
Mp3 vx1 gp vhi vdda sg13_lv_pmos L=0.13u W=1.5u ng=1 m=1
x3 d pr VDD VSS gp sg13g2_nand2b_1
C1 vx2 vx1 cap_cmim W=5.77e-6 L=5.77e-6 MF=1
C2 vx3 vx2 cap_cmim W=8.16e-6 L=8.16e-6 MF=1
C3 vx4 vout cap_cmim W=8.16e-6 L=8.16e-6 MF=1
.ends


* expanding   symbol:  template_comp.sym # of pins=10
** sym_path: /foss/designs/EE628/5_Design/3_Real_circuits/template_comp.sym
** sch_path: /foss/designs/EE628/5_Design/3_Real_circuits/template_comp.sch
.subckt template_comp vdda pc d ps dd vinm vinp vssa res dout
*.PININFO d:O pc:I vssa:B vdda:B ps:I res:I dd:O vinm:I vinp:I dout:O
M3m out1p out1m d2m vssa sg13_lv_nmos L=0.13u W=2u ng=1 m=1
M4m out1p out1m vdda vdda sg13_lv_pmos L=0.13u W=4u ng=1 m=1
M5m out1p pc vdda vdda sg13_lv_pmos L=0.13u W=4u ng=1 m=1
M2m d2m pc d1m vssa sg13_lv_nmos L=0.13u W=2u ng=1 m=1
M1m d1m vinm_samp vssa vssa sg13_lv_nmos L=1u W=2u ng=1 m=1
M3p out1m out1p d2p vssa sg13_lv_nmos L=0.13u W=2u ng=1 m=1
M4p out1m out1p vdda vdda sg13_lv_pmos L=0.13u W=4u ng=1 m=1
M5p out1m pc vdda vdda sg13_lv_pmos L=0.13u W=4u ng=1 m=1
M2p d2p pc d1p vssa sg13_lv_nmos L=0.13u W=2u ng=1 m=1
M1p d1p vinp vssa vssa sg13_lv_nmos L=1u W=2u ng=1 m=1
M32m dint net2 net1 VSS sg13_lv_nmos L=0.13u W=2u ng=1 m=1
M2 dint net2 VDD VDD sg13_lv_pmos L=0.13u W=4u ng=1 m=1
M3 dint out1m VDD VDD sg13_lv_pmos L=0.13u W=4u ng=1 m=1
M21m net1 out1m VSS VSS sg13_lv_nmos L=0.13u W=2u ng=1 m=1
M32p net2 dint net3 VSS sg13_lv_nmos L=0.13u W=2u ng=1 m=1
M42p net2 dint VDD VDD sg13_lv_pmos L=0.13u W=4u ng=1 m=1
M8 net2 out1p VDD VDD sg13_lv_pmos L=0.13u W=4u ng=1 m=1
M21p net3 out1p VSS VSS sg13_lv_nmos L=0.13u W=2u ng=1 m=1
x1 ps dint dd net5 net4 VDD VSS sg13g2_dfrbp_2
x2 dint VDD VSS d sg13g2_buf_2
x3 res VDD VSS net4 sg13g2_inv_1
Mp1 vinm_samp psb vinm vdda sg13_lv_pmos L=0.13u W=6u ng=3 m=1
Mn5 vinm_samp ps vinm vssa sg13_lv_nmos L=0.13u W=2u ng=1 m=1
C1 vinm_samp vssa cap_cmim W=5.77e-6 L=5.77e-6 MF=1
x4 ps VDD VSS psb sg13g2_inv_1
x5 dd VDD VSS dout sg13g2_inv_2
* noconn #net5
.ends

.GLOBAL VSS
.GLOBAL VDD
.end
** sch_path: /foss/designs/FinalProject/IDSM2_T4.sch
.subckt IDSM2_T4 vhi vlo vdda vin dout res clkin
*.PININFO vhi:I vlo:I vdda:I vssa:I vin:I res:I clkin:I dout:O
x1 vdda p2 net1 net2 dout vmid2 res VSS p1 vout2 comp_t4
x2 res vhi p1e p1 vdda p2 vin vout1 VSS net2 net3 vlo stage_t4
x3 res vhi p2e p2 vdda p1 vout1 vout2 VSS net1 vmid2 vlo stage_t4
x4 p1e p1 clkin p2 p2e clkgen_t4
.ends

* expanding   symbol:  /foss/designs/FinalProject/comp_t4.sym # of pins=10
** sym_path: /foss/designs/FinalProject/comp_t4.sym
** sch_path: /foss/designs/FinalProject/comp_t4.sch
.subckt comp_t4 vdda pc d dd dout vinp res vssa ps vinm
*.PININFO vdda:B vssa:B pc:I vinp:I res:I ps:I vinm:I d:O dd:O dout:O
M1 out1m out1p vdda vdda sg13_lv_pmos L=0.13u W=4u ng=1 m=1
M2 out1m out1p d2p vssa sg13_lv_nmos L=0.13u W=2u ng=1 m=1
M3 out1m pc vdda vdda sg13_lv_pmos L=0.13u W=4u ng=1 m=1
M4 d1p vinp vssa vssa sg13_lv_nmos L=1u W=2u ng=1 m=1
M5 d2p pc d1p vssa sg13_lv_nmos L=0.13u W=2u ng=1 m=1
M6 out1p out1m vdda vdda sg13_lv_pmos L=0.13u W=4u ng=1 m=1
M7 out1p out1m d2m vssa sg13_lv_nmos L=0.13u W=2u ng=1 m=1
M8 out1p pc vdda vdda sg13_lv_pmos L=0.13u W=4u ng=1 m=1
M9 d1m vinm_samp vssa vssa sg13_lv_nmos L=1u W=2u ng=1 m=1
M10 d2m pc d1m vssa sg13_lv_nmos L=0.13u W=2u ng=1 m=1
M11 net3 net4 VDD VDD sg13_lv_pmos L=0.13u W=4u ng=1 m=1
M12 net3 net4 net1 VSS sg13_lv_nmos L=0.13u W=2u ng=1 m=1
M13 net3 out1p VDD VDD sg13_lv_pmos L=0.13u W=4u ng=1 m=1
M15 net1 out1p VSS VSS sg13_lv_nmos L=0.13u W=2u ng=1 m=1
M16 net4 net3 VDD VDD sg13_lv_pmos L=0.13u W=4u ng=1 m=1
M17 net4 net3 net2 VSS sg13_lv_nmos L=0.13u W=2u ng=1 m=1
M18 net4 out1m VDD VDD sg13_lv_pmos L=0.13u W=4u ng=1 m=1
M20 net2 out1m VSS VSS sg13_lv_nmos L=0.13u W=2u ng=1 m=1
x2 net4 VDD VSS d sg13g2_buf_2
x3 res VDD VSS net5 sg13g2_inv_1
C1 vinm_samp vssa cap_cmim W=5.77e-6 L=5.77e-6 MF=1
M14 vinm_samp ps vinm vssa sg13_lv_nmos L=0.13u W=2u ng=1 m=1
M19 vinm_samp psb vinm vdda sg13_lv_pmos L=0.13u W=6u ng=3 m=1
x4 ps VDD VSS psb sg13g2_inv_1
x1 ps net4 dd net6 net5 VDD VSS sg13g2_dfrbp_1
x5 dd VDD VSS dout sg13g2_inv_2
.ends


* expanding   symbol:  /foss/designs/FinalProject/stage_t4.sym # of pins=12
** sym_path: /foss/designs/FinalProject/stage_t4.sym
** sch_path: /foss/designs/FinalProject/stage_t4.sch
.subckt stage_t4 res vhi p1e p1 vdda p2 vin vout vssa d vmid vlo
*.PININFO vin:I res:I vlo:B vdda:B vout:O p1e:I p1:I p2:I vssa:B d:I vmid:O vhi:B
M1 vout vx vssa vssa sg13_lv_nmos L=1.5u W=2.5u ng=1 m=1
M2 vout vx vdda vdda sg13_lv_pmos L=1.5u W=10.5u ng=4 m=1
M6 net2 p1 vin vssa sg13_lv_nmos L=0.13u W=2.0u ng=1 m=1
M5 net2 p1b vin vdda sg13_lv_pmos L=0.13u W=6.0u ng=3 m=1
M7 net2 net3 vlo vssa sg13_lv_nmos L=0.13u W=0.5u ng=1 m=1
M8 vy p1e vmid vssa sg13_lv_nmos L=0.13u W=2.0u ng=1 m=1
M9 net1 p2 vy vssa sg13_lv_nmos L=0.13u W=2.0u ng=1 m=1
M10 net1 p1 vx vssa sg13_lv_nmos L=0.13u W=2.0u ng=1 m=1
M11 vout res net1 vssa sg13_lv_nmos L=0.13u W=2.0u ng=1 m=1
x1 p1 VDD VSS p1b sg13g2_inv_1
x2 p2 d VDD VSS net3 sg13g2_and2_1
C1 vy net2 cap_cmim W=5.77e-6 L=5.77e-6 MF=1
C2 vx vy cap_cmim W=8.16e-6 L=8.16e-6 MF=1
C3 vout net1 cap_cmim W=8.16e-6 L=8.16e-6 MF=1
M12 net2 net4 vhi vdda sg13_lv_pmos L=0.13u W=1.5u ng=1 m=1
x3 d p2 VDD VSS net4 sg13g2_nand2b_1
M3 vmid vmid vssa vssa sg13_lv_nmos L=1.5u W=2.5u ng=1 m=1
M4 vmid vmid vdda vdda sg13_lv_pmos L=1.5u W=10.5u ng=4 m=1
.ends


* expanding   symbol:  /foss/designs/FinalProject/clkgen_t4.sym # of pins=5
** sym_path: /foss/designs/FinalProject/clkgen_t4.sym
** sch_path: /foss/designs/FinalProject/clkgen_t4.sch
.subckt clkgen_t4 p1e p1 clkin p2 p2e
*.PININFO p1e:O p1:O p2:O p2e:O clkin:I
x15 clkin VDD VSS net3 sg13g2_inv_2
x3 net3 VDD VSS net4 sg13g2_inv_2
x17 net3 net1 VDD VSS net12 sg13g2_nand2_2
x1 net4 net2 VDD VSS net11 sg13g2_nand2_2
x2 net7 net1 VDD VSS net8 sg13g2_nand2_2
x11 net5 net2 VDD VSS net9 sg13g2_nand2_2
x12 net8 VDD VSS net10 sg13g2_inv_4
x13 net9 VDD VSS net6 sg13g2_inv_4
x6 net5 VDD VSS p2e sg13g2_inv_4
x4 p2e VDD VSS net2 sg13g2_inv_4
x5 p1e VDD VSS net1 sg13g2_inv_4
x7 net7 VDD VSS p1e sg13g2_inv_4
x8 net18 VDD VSS net17 sg13g2_inv_4
x16 net11 VDD VSS net13 sg13g2_inv_4
x18 net13 VDD VSS net18 sg13g2_inv_4
x19 net17 VDD VSS net7 sg13g2_inv_4
x14 net15 VDD VSS net16 sg13g2_inv_4
x20 net12 VDD VSS net14 sg13g2_inv_4
x21 net14 VDD VSS net15 sg13g2_inv_4
x22 net16 VDD VSS net5 sg13g2_inv_4
x9 net10 VDD VSS p1 sg13g2_inv_8
x10 net6 VDD VSS p2 sg13g2_inv_8
.ends

**********************
*** top cells
.subckt sg13g2_IOPadAnalog vss vdd iovss iovdd pad padres
Xnclamp iovss iovdd pad sg13g2_Clamp_N20N0D
Xpclamp iovss iovdd pad sg13g2_Clamp_P20N0D
Xdcndiode iovss pad iovdd sg13g2_DCNDiode
Xdcpdiode pad iovdd iovss sg13g2_DCPDiode
Xsecondprot iovdd iovss pad padres sg13g2_SecondaryProtection
.ends

.subckt sg13g2_IOPadIOVdd vss vdd iovss iovdd
Xnclamp iovss iovdd iovdd ngate sg13g2_Clamp_N43N43D4R
Xrcres iovdd res_cap sg13g2_RCClampResistor
Xrcinv iovdd iovss res_cap ngate sg13g2_RCClampInverter
Xpad_guard iovss sg13g2_GuardRing_N16000W6624HFF
.ends sg13g2_IOPadIOVdd

.subckt sg13g2_IOPadIOVss vss vdd iovss iovdd
Xdcndiode iovss iovss iovdd sg13g2_DCNDiode
Xdcpdiode iovss iovdd iovss sg13g2_DCPDiode
.ends sg13g2_IOPadIOVss

*** Hacking this to short VSS and IOVSS (to pass LVS standalone) 
.subckt sg13g2_IOPadIn vss vdd iovss iovdd p2c pad
*Xdcndiode iovss pad iovdd sg13g2_DCNDiode
Xdcndiode vss pad iovdd sg13g2_DCNDiode
Xdcpdiode pad iovdd iovss sg13g2_DCPDiode
*Xleveldown vdd vss iovdd iovss pad p2c sg13g2_LevelDown
Xleveldown vdd vss iovdd vss pad p2c sg13g2_LevelDown
.ends sg13g2_IOPadIn

*** Hacking this to short VSS and IOVSS (to pass LVS standalone) 
.subckt sg13g2_IOPadOut16mA vss vdd iovss iovdd c2p pad
*Xnclamp iovss iovdd pad ngate sg13g2_Clamp_N8N8D
Xnclamp vss iovdd pad ngate sg13g2_Clamp_N8N8D
Xpclamp iovss iovdd pad pgate sg13g2_Clamp_P8N8D
*Xdcndiode iovss pad iovdd sg13g2_DCNDiode
Xdcndiode vss pad iovdd sg13g2_DCNDiode
Xdcpdiode pad iovdd iovss sg13g2_DCPDiode
Xgatelu vdd vss iovdd c2p ngate pgate sg13g2_GateLevelUpInv
.ends sg13g2_IOPadOut16mA

.subckt sg13g2_IOPadVdd vss vdd iovss iovdd
Xnclamp iovss iovdd vdd ngate sg13g2_Clamp_N43N43D4R
Xrcres vdd res_cap sg13g2_RCClampResistor
*** Inverter is connected to iovdd in layout
*Xrcinv vdd iovss res_cap ngate sg13g2_RCClampInverter
Xrcinv iovdd iovss res_cap ngate sg13g2_RCClampInverter
*** These are not in the layout
*Xdcndiode iovss vdd iovdd sg13g2_DCNDiode
*Xdcpdiode vdd iovdd iovss sg13g2_DCPDiode
.ends sg13g2_IOPadVdd

*** Hacking this to short VSS and IOVSS (to pass LVS standalone) 
.subckt sg13g2_IOPadVss vss vdd iovss iovdd
*Xdcndiode iovss vss iovdd sg13g2_DCNDiode
Xdcndiode vss vss iovdd sg13g2_DCNDiode
Xdcpdiode vss iovdd iovss sg13g2_DCPDiode
.ends sg13g2_IOPadVss


*********************
*** sub-cells
.subckt sg13g2_SecondaryProtection iovdd iovss pad core
Xguard1 iovss sg13g2_GuardRing_P576W948HFF
Xguard2 iovss sg13g2_GuardRing_P456W948HFF
Xguard3 iovdd sg13g2_GuardRing_N1324W456HTF
R1 core pad rppd l=2.0um w=1.0um m=1
DN iovss core dantenna l=3.1um w=0.64um a=1.984p p=7.48u
DP core iovdd dpantenna l=0.64um w=4.98um a=3.1872p p=11.24u
.ends sg13g2_SecondaryProtection

.subckt sg13g2_DCNDiode anode cathode guard
dcdiode[0] anode cathode dantenna l=1.26um w=27.78um a=35.0028p p=58.08u
dcdiode[1] anode cathode dantenna l=1.26um w=27.78um a=35.0028p p=58.08u
Xguard guard sg13g2_GuardRing_N7276W2716HFF
.ends sg13g2_DCNDiode

.subckt sg13g2_DCPDiode anode cathode guard
dcdiode[0] anode cathode dpantenna l=1.26um w=27.78um a=35.0028p p=58.08u
dcdiode[1] anode cathode dpantenna l=1.26um w=27.78um a=35.0028p p=58.08u
Xguard guard sg13g2_GuardRing_P7276W2716HFF
.ends sg13g2_DCPDiode

.subckt sg13g2_Clamp_N43N43D4R iovss iovdd pad gate
Mclamp_g0_r0 iovss gate pad iovss sg13_hv_nmos l=0.6um w=4.4um
Mclamp_g0_r1 iovss gate pad iovss sg13_hv_nmos l=0.6um w=4.4um
Mclamp_g0_r2 iovss gate pad iovss sg13_hv_nmos l=0.6um w=4.4um
Mclamp_g0_r3 iovss gate pad iovss sg13_hv_nmos l=0.6um w=4.4um
Mclamp_g1_r0 pad gate iovss iovss sg13_hv_nmos l=0.6um w=4.4um
Mclamp_g1_r1 pad gate iovss iovss sg13_hv_nmos l=0.6um w=4.4um
Mclamp_g1_r2 pad gate iovss iovss sg13_hv_nmos l=0.6um w=4.4um
Mclamp_g1_r3 pad gate iovss iovss sg13_hv_nmos l=0.6um w=4.4um
Mclamp_g2_r0 iovss gate pad iovss sg13_hv_nmos l=0.6um w=4.4um
Mclamp_g2_r1 iovss gate pad iovss sg13_hv_nmos l=0.6um w=4.4um
Mclamp_g2_r2 iovss gate pad iovss sg13_hv_nmos l=0.6um w=4.4um
Mclamp_g2_r3 iovss gate pad iovss sg13_hv_nmos l=0.6um w=4.4um
Mclamp_g3_r0 pad gate iovss iovss sg13_hv_nmos l=0.6um w=4.4um
Mclamp_g3_r1 pad gate iovss iovss sg13_hv_nmos l=0.6um w=4.4um
Mclamp_g3_r2 pad gate iovss iovss sg13_hv_nmos l=0.6um w=4.4um
Mclamp_g3_r3 pad gate iovss iovss sg13_hv_nmos l=0.6um w=4.4um
Mclamp_g4_r0 iovss gate pad iovss sg13_hv_nmos l=0.6um w=4.4um
Mclamp_g4_r1 iovss gate pad iovss sg13_hv_nmos l=0.6um w=4.4um
Mclamp_g4_r2 iovss gate pad iovss sg13_hv_nmos l=0.6um w=4.4um
Mclamp_g4_r3 iovss gate pad iovss sg13_hv_nmos l=0.6um w=4.4um
Mclamp_g5_r0 pad gate iovss iovss sg13_hv_nmos l=0.6um w=4.4um
Mclamp_g5_r1 pad gate iovss iovss sg13_hv_nmos l=0.6um w=4.4um
Mclamp_g5_r2 pad gate iovss iovss sg13_hv_nmos l=0.6um w=4.4um
Mclamp_g5_r3 pad gate iovss iovss sg13_hv_nmos l=0.6um w=4.4um
Mclamp_g6_r0 iovss gate pad iovss sg13_hv_nmos l=0.6um w=4.4um
Mclamp_g6_r1 iovss gate pad iovss sg13_hv_nmos l=0.6um w=4.4um
Mclamp_g6_r2 iovss gate pad iovss sg13_hv_nmos l=0.6um w=4.4um
Mclamp_g6_r3 iovss gate pad iovss sg13_hv_nmos l=0.6um w=4.4um
Mclamp_g7_r0 pad gate iovss iovss sg13_hv_nmos l=0.6um w=4.4um
Mclamp_g7_r1 pad gate iovss iovss sg13_hv_nmos l=0.6um w=4.4um
Mclamp_g7_r2 pad gate iovss iovss sg13_hv_nmos l=0.6um w=4.4um
Mclamp_g7_r3 pad gate iovss iovss sg13_hv_nmos l=0.6um w=4.4um
Mclamp_g8_r0 iovss gate pad iovss sg13_hv_nmos l=0.6um w=4.4um
Mclamp_g8_r1 iovss gate pad iovss sg13_hv_nmos l=0.6um w=4.4um
Mclamp_g8_r2 iovss gate pad iovss sg13_hv_nmos l=0.6um w=4.4um
Mclamp_g8_r3 iovss gate pad iovss sg13_hv_nmos l=0.6um w=4.4um
Mclamp_g9_r0 pad gate iovss iovss sg13_hv_nmos l=0.6um w=4.4um
Mclamp_g9_r1 pad gate iovss iovss sg13_hv_nmos l=0.6um w=4.4um
Mclamp_g9_r2 pad gate iovss iovss sg13_hv_nmos l=0.6um w=4.4um
Mclamp_g9_r3 pad gate iovss iovss sg13_hv_nmos l=0.6um w=4.4um
Mclamp_g10_r0 iovss gate pad iovss sg13_hv_nmos l=0.6um w=4.4um
Mclamp_g10_r1 iovss gate pad iovss sg13_hv_nmos l=0.6um w=4.4um
Mclamp_g10_r2 iovss gate pad iovss sg13_hv_nmos l=0.6um w=4.4um
Mclamp_g10_r3 iovss gate pad iovss sg13_hv_nmos l=0.6um w=4.4um
Mclamp_g11_r0 pad gate iovss iovss sg13_hv_nmos l=0.6um w=4.4um
Mclamp_g11_r1 pad gate iovss iovss sg13_hv_nmos l=0.6um w=4.4um
Mclamp_g11_r2 pad gate iovss iovss sg13_hv_nmos l=0.6um w=4.4um
Mclamp_g11_r3 pad gate iovss iovss sg13_hv_nmos l=0.6um w=4.4um
Mclamp_g12_r0 iovss gate pad iovss sg13_hv_nmos l=0.6um w=4.4um
Mclamp_g12_r1 iovss gate pad iovss sg13_hv_nmos l=0.6um w=4.4um
Mclamp_g12_r2 iovss gate pad iovss sg13_hv_nmos l=0.6um w=4.4um
Mclamp_g12_r3 iovss gate pad iovss sg13_hv_nmos l=0.6um w=4.4um
Mclamp_g13_r0 pad gate iovss iovss sg13_hv_nmos l=0.6um w=4.4um
Mclamp_g13_r1 pad gate iovss iovss sg13_hv_nmos l=0.6um w=4.4um
Mclamp_g13_r2 pad gate iovss iovss sg13_hv_nmos l=0.6um w=4.4um
Mclamp_g13_r3 pad gate iovss iovss sg13_hv_nmos l=0.6um w=4.4um
Mclamp_g14_r0 iovss gate pad iovss sg13_hv_nmos l=0.6um w=4.4um
Mclamp_g14_r1 iovss gate pad iovss sg13_hv_nmos l=0.6um w=4.4um
Mclamp_g14_r2 iovss gate pad iovss sg13_hv_nmos l=0.6um w=4.4um
Mclamp_g14_r3 iovss gate pad iovss sg13_hv_nmos l=0.6um w=4.4um
Mclamp_g15_r0 pad gate iovss iovss sg13_hv_nmos l=0.6um w=4.4um
Mclamp_g15_r1 pad gate iovss iovss sg13_hv_nmos l=0.6um w=4.4um
Mclamp_g15_r2 pad gate iovss iovss sg13_hv_nmos l=0.6um w=4.4um
Mclamp_g15_r3 pad gate iovss iovss sg13_hv_nmos l=0.6um w=4.4um
Mclamp_g16_r0 iovss gate pad iovss sg13_hv_nmos l=0.6um w=4.4um
Mclamp_g16_r1 iovss gate pad iovss sg13_hv_nmos l=0.6um w=4.4um
Mclamp_g16_r2 iovss gate pad iovss sg13_hv_nmos l=0.6um w=4.4um
Mclamp_g16_r3 iovss gate pad iovss sg13_hv_nmos l=0.6um w=4.4um
Mclamp_g17_r0 pad gate iovss iovss sg13_hv_nmos l=0.6um w=4.4um
Mclamp_g17_r1 pad gate iovss iovss sg13_hv_nmos l=0.6um w=4.4um
Mclamp_g17_r2 pad gate iovss iovss sg13_hv_nmos l=0.6um w=4.4um
Mclamp_g17_r3 pad gate iovss iovss sg13_hv_nmos l=0.6um w=4.4um
Mclamp_g18_r0 iovss gate pad iovss sg13_hv_nmos l=0.6um w=4.4um
Mclamp_g18_r1 iovss gate pad iovss sg13_hv_nmos l=0.6um w=4.4um
Mclamp_g18_r2 iovss gate pad iovss sg13_hv_nmos l=0.6um w=4.4um
Mclamp_g18_r3 iovss gate pad iovss sg13_hv_nmos l=0.6um w=4.4um
Mclamp_g19_r0 pad gate iovss iovss sg13_hv_nmos l=0.6um w=4.4um
Mclamp_g19_r1 pad gate iovss iovss sg13_hv_nmos l=0.6um w=4.4um
Mclamp_g19_r2 pad gate iovss iovss sg13_hv_nmos l=0.6um w=4.4um
Mclamp_g19_r3 pad gate iovss iovss sg13_hv_nmos l=0.6um w=4.4um
Mclamp_g20_r0 iovss gate pad iovss sg13_hv_nmos l=0.6um w=4.4um
Mclamp_g20_r1 iovss gate pad iovss sg13_hv_nmos l=0.6um w=4.4um
Mclamp_g20_r2 iovss gate pad iovss sg13_hv_nmos l=0.6um w=4.4um
Mclamp_g20_r3 iovss gate pad iovss sg13_hv_nmos l=0.6um w=4.4um
Mclamp_g21_r0 pad gate iovss iovss sg13_hv_nmos l=0.6um w=4.4um
Mclamp_g21_r1 pad gate iovss iovss sg13_hv_nmos l=0.6um w=4.4um
Mclamp_g21_r2 pad gate iovss iovss sg13_hv_nmos l=0.6um w=4.4um
Mclamp_g21_r3 pad gate iovss iovss sg13_hv_nmos l=0.6um w=4.4um
Mclamp_g22_r0 iovss gate pad iovss sg13_hv_nmos l=0.6um w=4.4um
Mclamp_g22_r1 iovss gate pad iovss sg13_hv_nmos l=0.6um w=4.4um
Mclamp_g22_r2 iovss gate pad iovss sg13_hv_nmos l=0.6um w=4.4um
Mclamp_g22_r3 iovss gate pad iovss sg13_hv_nmos l=0.6um w=4.4um
Mclamp_g23_r0 pad gate iovss iovss sg13_hv_nmos l=0.6um w=4.4um
Mclamp_g23_r1 pad gate iovss iovss sg13_hv_nmos l=0.6um w=4.4um
Mclamp_g23_r2 pad gate iovss iovss sg13_hv_nmos l=0.6um w=4.4um
Mclamp_g23_r3 pad gate iovss iovss sg13_hv_nmos l=0.6um w=4.4um
Mclamp_g24_r0 iovss gate pad iovss sg13_hv_nmos l=0.6um w=4.4um
Mclamp_g24_r1 iovss gate pad iovss sg13_hv_nmos l=0.6um w=4.4um
Mclamp_g24_r2 iovss gate pad iovss sg13_hv_nmos l=0.6um w=4.4um
Mclamp_g24_r3 iovss gate pad iovss sg13_hv_nmos l=0.6um w=4.4um
Mclamp_g25_r0 pad gate iovss iovss sg13_hv_nmos l=0.6um w=4.4um
Mclamp_g25_r1 pad gate iovss iovss sg13_hv_nmos l=0.6um w=4.4um
Mclamp_g25_r2 pad gate iovss iovss sg13_hv_nmos l=0.6um w=4.4um
Mclamp_g25_r3 pad gate iovss iovss sg13_hv_nmos l=0.6um w=4.4um
Mclamp_g26_r0 iovss gate pad iovss sg13_hv_nmos l=0.6um w=4.4um
Mclamp_g26_r1 iovss gate pad iovss sg13_hv_nmos l=0.6um w=4.4um
Mclamp_g26_r2 iovss gate pad iovss sg13_hv_nmos l=0.6um w=4.4um
Mclamp_g26_r3 iovss gate pad iovss sg13_hv_nmos l=0.6um w=4.4um
Mclamp_g27_r0 pad gate iovss iovss sg13_hv_nmos l=0.6um w=4.4um
Mclamp_g27_r1 pad gate iovss iovss sg13_hv_nmos l=0.6um w=4.4um
Mclamp_g27_r2 pad gate iovss iovss sg13_hv_nmos l=0.6um w=4.4um
Mclamp_g27_r3 pad gate iovss iovss sg13_hv_nmos l=0.6um w=4.4um
Mclamp_g28_r0 iovss gate pad iovss sg13_hv_nmos l=0.6um w=4.4um
Mclamp_g28_r1 iovss gate pad iovss sg13_hv_nmos l=0.6um w=4.4um
Mclamp_g28_r2 iovss gate pad iovss sg13_hv_nmos l=0.6um w=4.4um
Mclamp_g28_r3 iovss gate pad iovss sg13_hv_nmos l=0.6um w=4.4um
Mclamp_g29_r0 pad gate iovss iovss sg13_hv_nmos l=0.6um w=4.4um
Mclamp_g29_r1 pad gate iovss iovss sg13_hv_nmos l=0.6um w=4.4um
Mclamp_g29_r2 pad gate iovss iovss sg13_hv_nmos l=0.6um w=4.4um
Mclamp_g29_r3 pad gate iovss iovss sg13_hv_nmos l=0.6um w=4.4um
Mclamp_g30_r0 iovss gate pad iovss sg13_hv_nmos l=0.6um w=4.4um
Mclamp_g30_r1 iovss gate pad iovss sg13_hv_nmos l=0.6um w=4.4um
Mclamp_g30_r2 iovss gate pad iovss sg13_hv_nmos l=0.6um w=4.4um
Mclamp_g30_r3 iovss gate pad iovss sg13_hv_nmos l=0.6um w=4.4um
Mclamp_g31_r0 pad gate iovss iovss sg13_hv_nmos l=0.6um w=4.4um
Mclamp_g31_r1 pad gate iovss iovss sg13_hv_nmos l=0.6um w=4.4um
Mclamp_g31_r2 pad gate iovss iovss sg13_hv_nmos l=0.6um w=4.4um
Mclamp_g31_r3 pad gate iovss iovss sg13_hv_nmos l=0.6um w=4.4um
Mclamp_g32_r0 iovss gate pad iovss sg13_hv_nmos l=0.6um w=4.4um
Mclamp_g32_r1 iovss gate pad iovss sg13_hv_nmos l=0.6um w=4.4um
Mclamp_g32_r2 iovss gate pad iovss sg13_hv_nmos l=0.6um w=4.4um
Mclamp_g32_r3 iovss gate pad iovss sg13_hv_nmos l=0.6um w=4.4um
Mclamp_g33_r0 pad gate iovss iovss sg13_hv_nmos l=0.6um w=4.4um
Mclamp_g33_r1 pad gate iovss iovss sg13_hv_nmos l=0.6um w=4.4um
Mclamp_g33_r2 pad gate iovss iovss sg13_hv_nmos l=0.6um w=4.4um
Mclamp_g33_r3 pad gate iovss iovss sg13_hv_nmos l=0.6um w=4.4um
Mclamp_g34_r0 iovss gate pad iovss sg13_hv_nmos l=0.6um w=4.4um
Mclamp_g34_r1 iovss gate pad iovss sg13_hv_nmos l=0.6um w=4.4um
Mclamp_g34_r2 iovss gate pad iovss sg13_hv_nmos l=0.6um w=4.4um
Mclamp_g34_r3 iovss gate pad iovss sg13_hv_nmos l=0.6um w=4.4um
Mclamp_g35_r0 pad gate iovss iovss sg13_hv_nmos l=0.6um w=4.4um
Mclamp_g35_r1 pad gate iovss iovss sg13_hv_nmos l=0.6um w=4.4um
Mclamp_g35_r2 pad gate iovss iovss sg13_hv_nmos l=0.6um w=4.4um
Mclamp_g35_r3 pad gate iovss iovss sg13_hv_nmos l=0.6um w=4.4um
Mclamp_g36_r0 iovss gate pad iovss sg13_hv_nmos l=0.6um w=4.4um
Mclamp_g36_r1 iovss gate pad iovss sg13_hv_nmos l=0.6um w=4.4um
Mclamp_g36_r2 iovss gate pad iovss sg13_hv_nmos l=0.6um w=4.4um
Mclamp_g36_r3 iovss gate pad iovss sg13_hv_nmos l=0.6um w=4.4um
Mclamp_g37_r0 pad gate iovss iovss sg13_hv_nmos l=0.6um w=4.4um
Mclamp_g37_r1 pad gate iovss iovss sg13_hv_nmos l=0.6um w=4.4um
Mclamp_g37_r2 pad gate iovss iovss sg13_hv_nmos l=0.6um w=4.4um
Mclamp_g37_r3 pad gate iovss iovss sg13_hv_nmos l=0.6um w=4.4um
Mclamp_g38_r0 iovss gate pad iovss sg13_hv_nmos l=0.6um w=4.4um
Mclamp_g38_r1 iovss gate pad iovss sg13_hv_nmos l=0.6um w=4.4um
Mclamp_g38_r2 iovss gate pad iovss sg13_hv_nmos l=0.6um w=4.4um
Mclamp_g38_r3 iovss gate pad iovss sg13_hv_nmos l=0.6um w=4.4um
Mclamp_g39_r0 pad gate iovss iovss sg13_hv_nmos l=0.6um w=4.4um
Mclamp_g39_r1 pad gate iovss iovss sg13_hv_nmos l=0.6um w=4.4um
Mclamp_g39_r2 pad gate iovss iovss sg13_hv_nmos l=0.6um w=4.4um
Mclamp_g39_r3 pad gate iovss iovss sg13_hv_nmos l=0.6um w=4.4um
Mclamp_g40_r0 iovss gate pad iovss sg13_hv_nmos l=0.6um w=4.4um
Mclamp_g40_r1 iovss gate pad iovss sg13_hv_nmos l=0.6um w=4.4um
Mclamp_g40_r2 iovss gate pad iovss sg13_hv_nmos l=0.6um w=4.4um
Mclamp_g40_r3 iovss gate pad iovss sg13_hv_nmos l=0.6um w=4.4um
Mclamp_g41_r0 pad gate iovss iovss sg13_hv_nmos l=0.6um w=4.4um
Mclamp_g41_r1 pad gate iovss iovss sg13_hv_nmos l=0.6um w=4.4um
Mclamp_g41_r2 pad gate iovss iovss sg13_hv_nmos l=0.6um w=4.4um
Mclamp_g41_r3 pad gate iovss iovss sg13_hv_nmos l=0.6um w=4.4um
Mclamp_g42_r0 iovss gate pad iovss sg13_hv_nmos l=0.6um w=4.4um
Mclamp_g42_r1 iovss gate pad iovss sg13_hv_nmos l=0.6um w=4.4um
Mclamp_g42_r2 iovss gate pad iovss sg13_hv_nmos l=0.6um w=4.4um
Mclamp_g42_r3 iovss gate pad iovss sg13_hv_nmos l=0.6um w=4.4um
XOuterRing iovdd sg13g2_GuardRing_N16000W4884HFF
XInnerRing iovss sg13g2_GuardRing_P15280W4164HFF
DGATE iovss gate dantenna l=0.64um w=0.3um a=0.192p p=1.88u
.ends sg13g2_Clamp_N43N43D4R

.subckt sg13g2_RCClampResistor pin1 pin2
*res_fing[0] pin1 conn_0_1 rppd l=20.0um w=1.0um
*res_fing[1] conn_0_1 conn_1_2 rppd l=20.0um w=1.0um
*res_fing[2] conn_1_2 conn_2_3 rppd l=20.0um w=1.0um
*res_fing[3] conn_2_3 conn_3_4 rppd l=20.0um w=1.0um
*res_fing[4] conn_3_4 conn_4_5 rppd l=20.0um w=1.0um
*res_fing[5] conn_4_5 conn_5_6 rppd l=20.0um w=1.0um
*res_fing[6] conn_5_6 conn_6_7 rppd l=20.0um w=1.0um
*res_fing[7] conn_6_7 conn_7_8 rppd l=20.0um w=1.0um
*res_fing[8] conn_7_8 conn_8_9 rppd l=20.0um w=1.0um
*res_fing[9] conn_8_9 conn_9_10 rppd l=20.0um w=1.0um
*res_fing[10] conn_9_10 conn_10_11 rppd l=20.0um w=1.0um
*res_fing[11] conn_10_11 conn_11_12 rppd l=20.0um w=1.0um
*res_fing[12] conn_11_12 conn_12_13 rppd l=20.0um w=1.0um
*res_fing[13] conn_12_13 conn_13_14 rppd l=20.0um w=1.0um
*res_fing[14] conn_13_14 conn_14_15 rppd l=20.0um w=1.0um
*res_fing[15] conn_14_15 conn_15_16 rppd l=20.0um w=1.0um
*res_fing[16] conn_15_16 conn_16_17 rppd l=20.0um w=1.0um
*res_fing[17] conn_16_17 conn_17_18 rppd l=20.0um w=1.0um
*res_fing[18] conn_17_18 conn_18_19 rppd l=20.0um w=1.0um
*res_fing[19] conn_18_19 conn_19_20 rppd l=20.0um w=1.0um
*res_fing[20] conn_19_20 conn_20_21 rppd l=20.0um w=1.0um
*res_fing[21] conn_20_21 conn_21_22 rppd l=20.0um w=1.0um
*res_fing[22] conn_21_22 conn_22_23 rppd l=20.0um w=1.0um
*res_fing[23] conn_22_23 conn_23_24 rppd l=20.0um w=1.0um
*res_fing[24] conn_23_24 conn_24_25 rppd l=20.0um w=1.0um
*res_fing[25] conn_24_25 pin2 rppd l=20.0um w=1.0um
res1 pin1 pin2 rppd w=1.0um b=25 m=1
.ends sg13g2_RCClampResistor

.subckt sg13g2_RCClampInverter supply ground in out
Mcapmos0_r0 ground in ground ground sg13_hv_nmos l=9.5um w=9.0um
Mcapmos1_r0 ground in ground ground sg13_hv_nmos l=9.5um w=9.0um
Mcapmos2_r0 ground in ground ground sg13_hv_nmos l=9.5um w=9.0um
Mcapmos3_r0 ground in ground ground sg13_hv_nmos l=9.5um w=9.0um
Mcapmos4_r0 ground in ground ground sg13_hv_nmos l=9.5um w=9.0um
Mcapmos5_r0 ground in ground ground sg13_hv_nmos l=9.5um w=9.0um
Mcapmos6_r0 ground in ground ground sg13_hv_nmos l=9.5um w=9.0um
Mnmos0_r0 ground in out ground sg13_hv_nmos l=0.5um w=9.0um
Mnmos1_r0 out in ground ground sg13_hv_nmos l=0.5um w=9.0um
Mnmos2_r0 ground in out ground sg13_hv_nmos l=0.5um w=9.0um