* Extracted by KLayout with SG13G2 LVS runset on : 25/05/2024 03:57

* cell UHEE628_S2024
* pin PAD,RES
* pin CK4,PAD
* pin CK5,PAD
* pin CK6,PAD
* pin IOVDD
* pin AVDD
* pin CORE
* pin CORE
* pin CORE
* pin CORE
* pin IN6,PAD
* pin OUT6
* pin VDD
* pin dout
* pin CORE
* pin IN5,PAD
* pin OUT5
* pin CORE
* pin IN4,PAD
* pin OUT4
* pin CORE
* pin PAD,VLO
* pin CORE
* pin PAD,VHI
* pin CORE
* pin IN3,PAD
* pin OUT3
* pin CORE
* pin PAD,VLDO
* pin IN2,PAD
* pin OUT2
* pin CORE
* pin CORE
* pin IN1,PAD
* pin OUT1
* pin CORE
* pin PAD,VREF
* pin CORE
* pin CORE
* pin CORE
* pin CORE
* pin CK3,PAD
* pin CK2,PAD
* pin CK1,PAD
* pin VSS
.SUBCKT UHEE628_S2024 PAD|RES CK4|PAD CK5|PAD CK6|PAD IOVDD AVDD CORE CORE$1
+ CORE$2 CORE$3 IN6|PAD OUT6 VDD dout CORE$4 IN5|PAD OUT5 CORE$5 IN4|PAD OUT4
+ CORE$6 PAD|VLO CORE$7 PAD|VHI CORE$8 IN3|PAD OUT3 CORE$9 PAD|VLDO IN2|PAD
+ OUT2 CORE$10 CORE$11 IN1|PAD OUT1 CORE$12 PAD|VREF CORE$13 CORE$14 CORE$15
+ CORE$16 CK3|PAD CK2|PAD CK1|PAD VSS
* device instance $1 r0 *1 500.255,239.005 sg13_lv_nmos
M$1 \$173 \$178 VSS VSS sg13_lv_nmos W=2.75 L=0.13
* device instance $2 r0 *1 700.255,239.005 sg13_lv_nmos
M$2 \$174 \$179 VSS VSS sg13_lv_nmos W=2.75 L=0.13
* device instance $3 r0 *1 800.255,239.005 sg13_lv_nmos
M$3 \$175 \$180 VSS VSS sg13_lv_nmos W=2.75 L=0.13
* device instance $4 r0 *1 900.255,239.005 sg13_lv_nmos
M$4 \$176 \$181 VSS VSS sg13_lv_nmos W=2.75 L=0.13
* device instance $5 r0 *1 1060.995,297.48 sg13_lv_nmos
M$5 \$230 dout VSS VSS sg13_lv_nmos W=2.75 L=0.13
* device instance $6 r0 *1 431.875,301.115 sg13_lv_nmos
M$6 \$261 \$283 VSS VSS sg13_lv_nmos W=1.44 L=0.13
* device instance $8 r0 *1 432.905,301.115 sg13_lv_nmos
M$8 \$261 \$374 \$270 VSS sg13_lv_nmos W=1.44 L=0.13
* device instance $10 r0 *1 434.755,301.115 sg13_lv_nmos
M$10 \$262 \$284 VSS VSS sg13_lv_nmos W=1.44 L=0.13
* device instance $12 r0 *1 435.785,301.115 sg13_lv_nmos
M$12 \$262 \$324 \$263 VSS sg13_lv_nmos W=1.44 L=0.13
* device instance $14 r0 *1 437.56,301.14 sg13_lv_nmos
M$14 VSS \$270 \$264 VSS sg13_lv_nmos W=2.96 L=0.13
* device instance $18 r0 *1 440.44,301.14 sg13_lv_nmos
M$18 VSS \$263 \$265 VSS sg13_lv_nmos W=2.96 L=0.13
* device instance $22 r0 *1 443.26,301.14 sg13_lv_nmos
M$22 VSS \$264 \$266 VSS sg13_lv_nmos W=5.920000000000001 L=0.13
* device instance $30 r0 *1 448.06,301.14 sg13_lv_nmos
M$30 VSS \$265 \$267 VSS sg13_lv_nmos W=5.920000000000001 L=0.13
* device instance $38 r0 *1 431.085,305.825 sg13_lv_nmos
M$38 VSS \$176 \$319 VSS sg13_lv_nmos W=1.48 L=0.13
* device instance $40 r0 *1 433.06,305.8 sg13_lv_nmos
M$40 \$320 \$319 VSS VSS sg13_lv_nmos W=1.44 L=0.13
* device instance $42 r0 *1 434.09,305.8 sg13_lv_nmos
M$42 \$320 \$283 \$331 VSS sg13_lv_nmos W=1.44 L=0.13
* device instance $44 r0 *1 435.865,305.825 sg13_lv_nmos
M$44 VSS \$331 \$321 VSS sg13_lv_nmos W=2.96 L=0.13
* device instance $48 r0 *1 438.745,305.825 sg13_lv_nmos
M$48 VSS \$321 \$322 VSS sg13_lv_nmos W=2.96 L=0.13
* device instance $52 r0 *1 441.625,305.825 sg13_lv_nmos
M$52 VSS \$322 \$323 VSS sg13_lv_nmos W=2.96 L=0.13
* device instance $56 r0 *1 444.505,305.825 sg13_lv_nmos
M$56 VSS \$323 \$324 VSS sg13_lv_nmos W=2.96 L=0.13
* device instance $60 r0 *1 447.385,305.825 sg13_lv_nmos
M$60 VSS \$324 \$325 VSS sg13_lv_nmos W=2.96 L=0.13
* device instance $64 r0 *1 450.265,305.825 sg13_lv_nmos
M$64 VSS \$325 \$284 VSS sg13_lv_nmos W=2.96 L=0.13
* device instance $68 r0 *1 456.79,303.21 sg13_lv_nmos
M$68 VSS \$267 \$291 VSS sg13_lv_nmos W=0.74 L=0.13
* device instance $69 r0 *1 457.97,303.37 sg13_lv_nmos
M$69 \$294 \$266 \$306 VSS sg13_lv_nmos W=0.64 L=0.13
* device instance $70 r0 *1 458.48,303.37 sg13_lv_nmos
M$70 VSS \$247 \$306 VSS sg13_lv_nmos W=0.64 L=0.13
* device instance $71 r0 *1 458.99,303.32 sg13_lv_nmos
M$71 VSS \$294 \$295 VSS sg13_lv_nmos W=0.74 L=0.13
* device instance $72 r0 *1 460.28,303.305 sg13_lv_nmos
M$72 VSS \$247 \$296 VSS sg13_lv_nmos W=0.55 L=0.12999999999999998
* device instance $73 r0 *1 461.13,303.21 sg13_lv_nmos
M$73 VSS \$266 \$309 VSS sg13_lv_nmos W=0.74 L=0.13
* device instance $74 r0 *1 461.44,303.21 sg13_lv_nmos
M$74 \$309 \$296 \$292 VSS sg13_lv_nmos W=0.74 L=0.13
* device instance $75 r0 *1 465.4,304.425 sg13_lv_nmos
M$75 \$297 \$325 \$248 VSS sg13_lv_nmos W=2.0 L=0.13
* device instance $76 r0 *1 465.91,304.425 sg13_lv_nmos
M$76 \$248 \$266 \$298 VSS sg13_lv_nmos W=2.0 L=0.13
* device instance $77 r0 *1 469.22,304.415 sg13_lv_nmos
M$77 \$272 \$267 \$298 VSS sg13_lv_nmos W=2.0 L=0.13
* device instance $78 r0 *1 469.73,304.415 sg13_lv_nmos
M$78 \$298 \$173 \$271 VSS sg13_lv_nmos W=2.0 L=0.13
* device instance $79 r0 *1 1060.995,300.99 sg13_lv_nmos
M$79 \$268 dout VSS VSS sg13_lv_nmos W=2.75 L=0.13
* device instance $80 r0 *1 431.05,310.475 sg13_lv_nmos
M$80 VSS \$319 \$368 VSS sg13_lv_nmos W=1.48 L=0.13
* device instance $82 r0 *1 433.025,310.45 sg13_lv_nmos
M$82 \$369 \$284 VSS VSS sg13_lv_nmos W=1.44 L=0.13
* device instance $84 r0 *1 434.055,310.45 sg13_lv_nmos
M$84 \$369 \$368 \$370 VSS sg13_lv_nmos W=1.44 L=0.13
* device instance $86 r0 *1 435.83,310.475 sg13_lv_nmos
M$86 VSS \$370 \$371 VSS sg13_lv_nmos W=2.96 L=0.13
* device instance $90 r0 *1 438.71,310.475 sg13_lv_nmos
M$90 VSS \$371 \$372 VSS sg13_lv_nmos W=2.96 L=0.13
* device instance $94 r0 *1 441.59,310.475 sg13_lv_nmos
M$94 VSS \$372 \$373 VSS sg13_lv_nmos W=2.96 L=0.13
* device instance $98 r0 *1 444.47,310.475 sg13_lv_nmos
M$98 VSS \$373 \$374 VSS sg13_lv_nmos W=2.96 L=0.13
* device instance $102 r0 *1 447.35,310.475 sg13_lv_nmos
M$102 VSS \$374 \$375 VSS sg13_lv_nmos W=2.96 L=0.13
* device instance $106 r0 *1 450.23,310.475 sg13_lv_nmos
M$106 VSS \$375 \$283 VSS sg13_lv_nmos W=2.96 L=0.13
* device instance $110 r0 *1 457.825,307.85 sg13_lv_nmos
M$110 \$347 \$295 PAD|VLO VSS sg13_lv_nmos W=0.5 L=0.13
* device instance $111 r0 *1 460.21,307.855 sg13_lv_nmos
M$111 \$347 \$267 \$346 VSS sg13_lv_nmos W=2.0 L=0.13
* device instance $112 r0 *1 465.395,308.555 sg13_lv_nmos
M$112 VSS \$297 \$297 VSS sg13_lv_nmos W=2.5 L=1.5
* device instance $113 r0 *1 469.615,308.555 sg13_lv_nmos
M$113 VSS \$272 \$271 VSS sg13_lv_nmos W=2.5 L=1.5
* device instance $114 r0 *1 431.685,321.635 sg13_lv_nmos
M$114 VSS \$266 \$442 VSS sg13_lv_nmos W=0.74 L=0.13
* device instance $115 r0 *1 432.865,321.795 sg13_lv_nmos
M$115 \$446 \$267 \$451 VSS sg13_lv_nmos W=0.64 L=0.13
* device instance $116 r0 *1 433.375,321.795 sg13_lv_nmos
M$116 VSS \$439 \$451 VSS sg13_lv_nmos W=0.64 L=0.13
* device instance $117 r0 *1 433.885,321.745 sg13_lv_nmos
M$117 VSS \$446 \$443 VSS sg13_lv_nmos W=0.74 L=0.13
* device instance $118 r0 *1 435.175,321.73 sg13_lv_nmos
M$118 VSS \$439 \$447 VSS sg13_lv_nmos W=0.55 L=0.12999999999999998
* device instance $119 r0 *1 436.025,321.635 sg13_lv_nmos
M$119 VSS \$267 \$454 VSS sg13_lv_nmos W=0.74 L=0.13
* device instance $120 r0 *1 436.335,321.635 sg13_lv_nmos
M$120 \$454 \$447 \$444 VSS sg13_lv_nmos W=0.74 L=0.13
* device instance $121 r0 *1 440.295,322.85 sg13_lv_nmos
M$121 \$448 \$375 \$437 VSS sg13_lv_nmos W=2.0 L=0.13
* device instance $122 r0 *1 440.805,322.85 sg13_lv_nmos
M$122 \$437 \$267 \$449 VSS sg13_lv_nmos W=2.0 L=0.13
* device instance $123 r0 *1 444.115,322.84 sg13_lv_nmos
M$123 \$440 \$266 \$449 VSS sg13_lv_nmos W=2.0 L=0.13
* device instance $124 r0 *1 444.625,322.84 sg13_lv_nmos
M$124 \$449 \$173 \$346 VSS sg13_lv_nmos W=2.0 L=0.13
* device instance $125 r0 *1 451.1,325.71 sg13_lv_nmos
M$125 VSS \$266 \$467 VSS sg13_lv_nmos W=0.74 L=0.13
* device instance $126 r0 *1 452.54,325.71 sg13_lv_nmos
M$126 VSS \$173 \$493 VSS sg13_lv_nmos W=0.74 L=0.13
* device instance $127 r0 *1 453.94,325.71 sg13_lv_nmos
M$127 VSS \$494 \$247 VSS sg13_lv_nmos W=1.48 L=0.13
* device instance $129 r0 *1 454.96,325.76 sg13_lv_nmos
M$129 VSS \$546 \$494 VSS sg13_lv_nmos W=0.64 L=0.13
* device instance $130 r0 *1 456.195,325.53 sg13_lv_nmos
M$130 \$468 \$546 \$475 VSS sg13_lv_nmos W=0.42 L=0.13
* device instance $131 r0 *1 456.505,325.53 sg13_lv_nmos
M$131 \$475 \$493 VSS VSS sg13_lv_nmos W=0.42 L=0.13
* device instance $132 r0 *1 457.085,325.915 sg13_lv_nmos
M$132 VSS \$495 \$462 VSS sg13_lv_nmos W=0.74 L=0.13
* device instance $133 r0 *1 464.925,325.53 sg13_lv_nmos
M$133 \$470 \$471 VSS VSS sg13_lv_nmos W=0.42 L=0.13
* device instance $134 r0 *1 465.435,325.53 sg13_lv_nmos
M$134 VSS \$493 \$476 VSS sg13_lv_nmos W=0.42 L=0.13
* device instance $135 r0 *1 465.745,325.53 sg13_lv_nmos
M$135 \$476 \$482 \$471 VSS sg13_lv_nmos W=0.42 L=0.13
* device instance $136 r0 *1 467.785,325.64 sg13_lv_nmos
M$136 VSS \$482 \$473 VSS sg13_lv_nmos W=0.64 L=0.13
* device instance $137 r0 *1 466.765,325.69 sg13_lv_nmos
M$137 VSS \$482 \$472 VSS sg13_lv_nmos W=1.48 L=0.13
* device instance $139 r0 *1 468.805,325.69 sg13_lv_nmos
M$139 VSS \$473 \$439 VSS sg13_lv_nmos W=1.48 L=0.13
* device instance $141 r0 *1 470.56,325.71 sg13_lv_nmos
M$141 VSS \$439 dout VSS sg13_lv_nmos W=1.48 L=0.13
* device instance $143 r0 *1 432.72,326.275 sg13_lv_nmos
M$143 \$480 \$443 PAD|VLO VSS sg13_lv_nmos W=0.5 L=0.13
* device instance $144 r0 *1 435.105,326.28 sg13_lv_nmos
M$144 \$480 \$266 CORE$4 VSS sg13_lv_nmos W=2.0 L=0.13
* device instance $145 r0 *1 440.29,326.98 sg13_lv_nmos
M$145 VSS \$448 \$448 VSS sg13_lv_nmos W=2.5 L=1.5
* device instance $146 r0 *1 444.51,326.98 sg13_lv_nmos
M$146 VSS \$440 \$346 VSS sg13_lv_nmos W=2.5 L=1.5
* device instance $147 r0 *1 458.175,325.595 sg13_lv_nmos
M$147 VSS \$493 \$479 VSS sg13_lv_nmos W=0.42 L=0.13
* device instance $148 r0 *1 458.485,325.595 sg13_lv_nmos
M$148 \$479 \$462 \$469 VSS sg13_lv_nmos W=0.42 L=0.13
* device instance $149 r0 *1 459.26,326.32 sg13_lv_nmos
M$149 \$468 \$463 \$495 VSS sg13_lv_nmos W=0.42 L=0.13
* device instance $150 r0 *1 459.77,326.32 sg13_lv_nmos
M$150 \$495 \$481 \$469 VSS sg13_lv_nmos W=0.42 L=0.13
* device instance $151 r0 *1 460.575,329.87 sg13_lv_nmos
M$151 VSS \$297 \$533 VSS sg13_lv_nmos W=2.0 L=1.0
* device instance $152 r0 *1 460.575,330.815 sg13_lv_nmos
M$152 \$533 \$267 \$538 VSS sg13_lv_nmos W=2.0 L=0.13
* device instance $153 r0 *1 460.575,331.325 sg13_lv_nmos
M$153 \$538 \$544 \$543 VSS sg13_lv_nmos W=2.0 L=0.13
* device instance $154 r0 *1 461.03,325.795 sg13_lv_nmos
M$154 VSS \$463 \$481 VSS sg13_lv_nmos W=0.74 L=0.13
* device instance $155 r0 *1 462.13,325.795 sg13_lv_nmos
M$155 VSS \$266 \$463 VSS sg13_lv_nmos W=0.74 L=0.13
* device instance $156 r0 *1 463.65,329.87 sg13_lv_nmos
M$156 VSS \$526 \$534 VSS sg13_lv_nmos W=2.0 L=1.0
* device instance $157 r0 *1 463.65,330.815 sg13_lv_nmos
M$157 \$534 \$267 \$539 VSS sg13_lv_nmos W=2.0 L=0.13
* device instance $158 r0 *1 463.65,331.325 sg13_lv_nmos
M$158 \$539 \$543 \$544 VSS sg13_lv_nmos W=2.0 L=0.13
* device instance $159 r0 *1 463.34,325.915 sg13_lv_nmos
M$159 \$482 \$463 \$470 VSS sg13_lv_nmos W=0.42 L=0.13
* device instance $160 r0 *1 463.875,325.755 sg13_lv_nmos
M$160 \$462 \$481 \$482 VSS sg13_lv_nmos W=0.74 L=0.13
* device instance $161 r0 *1 467.385,330.81 sg13_lv_nmos
M$161 VSS \$544 \$540 VSS sg13_lv_nmos W=2.0 L=0.13
* device instance $162 r0 *1 467.385,331.32 sg13_lv_nmos
M$162 \$540 \$546 \$545 VSS sg13_lv_nmos W=2.0 L=0.13
* device instance $163 r0 *1 470.52,330.81 sg13_lv_nmos
M$163 VSS \$543 \$541 VSS sg13_lv_nmos W=2.0 L=0.13
* device instance $164 r0 *1 470.52,331.32 sg13_lv_nmos
M$164 \$541 \$545 \$546 VSS sg13_lv_nmos W=2.0 L=0.13
* device instance $165 r0 *1 457.62,331.325 sg13_lv_nmos
M$165 \$526 \$266 \$271 VSS sg13_lv_nmos W=2.0 L=0.13
* device instance $166 r0 *1 464.23,393.71 sg13_lv_nmos
M$166 \$623 \$625 VSS VSS sg13_lv_nmos W=0.74 L=0.13
* device instance $167 r0 *1 464.74,393.76 sg13_lv_nmos
M$167 VSS \$645 \$628 VSS sg13_lv_nmos W=0.64 L=0.13
* device instance $168 r0 *1 465.25,393.76 sg13_lv_nmos
M$168 \$628 \$693 \$625 VSS sg13_lv_nmos W=0.64 L=0.13
* device instance $169 r0 *1 476.37,393.76 sg13_lv_nmos
M$169 \$626 \$652 \$631 VSS sg13_lv_nmos W=0.64 L=0.13
* device instance $170 r0 *1 476.88,393.76 sg13_lv_nmos
M$170 VSS \$627 \$631 VSS sg13_lv_nmos W=0.64 L=0.13
* device instance $171 r0 *1 477.39,393.71 sg13_lv_nmos
M$171 VSS \$626 \$624 VSS sg13_lv_nmos W=0.74 L=0.13
* device instance $172 r0 *1 459.485,394.65 sg13_lv_nmos
M$172 PAD|VLO \$623 \$632 VSS sg13_lv_nmos W=0.5 L=0.13
* device instance $173 r0 *1 482.135,394.65 sg13_lv_nmos
M$173 PAD|VLO \$624 \$659 VSS sg13_lv_nmos W=0.5 L=0.13
* device instance $174 r0 *1 1060.995,397.48 sg13_lv_nmos
M$174 \$643 \$645 VSS VSS sg13_lv_nmos W=2.75 L=0.13
* device instance $175 r0 *1 458.33,399.375 sg13_lv_nmos
M$175 \$632 \$652 CORE$5 VSS sg13_lv_nmos W=2.0 L=0.13
* device instance $176 r0 *1 483.295,399.375 sg13_lv_nmos
M$176 \$799 \$693 \$659 VSS sg13_lv_nmos W=2.0 L=0.13
* device instance $177 r0 *1 1060.995,400.99 sg13_lv_nmos
M$177 \$687 \$645 VSS VSS sg13_lv_nmos W=2.75 L=0.13
* device instance $178 r0 *1 443.525,403.27 sg13_lv_nmos
M$178 \$754 \$693 \$616 VSS sg13_lv_nmos W=2.0 L=0.13
* device instance $179 r0 *1 448.1,403.27 sg13_lv_nmos
M$179 \$616 \$887 \$696 VSS sg13_lv_nmos W=2.0 L=0.13
* device instance $180 r0 *1 493.52,403.27 sg13_lv_nmos
M$180 \$697 \$843 \$617 VSS sg13_lv_nmos W=2.0 L=0.13
* device instance $181 r0 *1 498.095,403.27 sg13_lv_nmos
M$181 \$617 \$652 \$755 VSS sg13_lv_nmos W=2.0 L=0.13
* device instance $182 r0 *1 458.725,405.86 sg13_lv_nmos
M$182 VSS \$652 \$653 VSS sg13_lv_nmos W=0.74 L=0.13
* device instance $183 r0 *1 462.07,405.955 sg13_lv_nmos
M$183 VSS \$645 \$721 VSS sg13_lv_nmos W=0.55 L=0.12999999999999998
* device instance $184 r0 *1 462.92,405.86 sg13_lv_nmos
M$184 VSS \$693 \$727 VSS sg13_lv_nmos W=0.74 L=0.13
* device instance $185 r0 *1 463.23,405.86 sg13_lv_nmos
M$185 \$727 \$721 \$711 VSS sg13_lv_nmos W=0.74 L=0.13
* device instance $186 r0 *1 478.39,405.86 sg13_lv_nmos
M$186 \$712 \$722 \$729 VSS sg13_lv_nmos W=0.74 L=0.13
* device instance $187 r0 *1 478.7,405.86 sg13_lv_nmos
M$187 \$729 \$652 VSS VSS sg13_lv_nmos W=0.74 L=0.13
* device instance $188 r0 *1 479.55,405.955 sg13_lv_nmos
M$188 VSS \$627 \$722 VSS sg13_lv_nmos W=0.55 L=0.12999999999999998
* device instance $189 r0 *1 482.9,405.86 sg13_lv_nmos
M$189 \$654 \$693 VSS VSS sg13_lv_nmos W=0.74 L=0.13
* device instance $190 r0 *1 454.04,411.25 sg13_lv_nmos
M$190 \$696 \$696 VSS VSS sg13_lv_nmos W=2.5 L=1.5
* device instance $191 r0 *1 487.58,411.25 sg13_lv_nmos
M$191 VSS \$697 \$697 VSS sg13_lv_nmos W=2.5 L=1.5
* device instance $192 r0 *1 454.04,420.795 sg13_lv_nmos
M$192 \$799 \$615 VSS VSS sg13_lv_nmos W=2.5 L=1.5
* device instance $193 r0 *1 487.58,420.795 sg13_lv_nmos
M$193 VSS \$618 \$795 VSS sg13_lv_nmos W=2.5 L=1.5
* device instance $194 r0 *1 458.98,423.25 sg13_lv_nmos
M$194 \$799 \$173 \$754 VSS sg13_lv_nmos W=2.0 L=0.13
* device instance $195 r0 *1 463.555,423.25 sg13_lv_nmos
M$195 \$754 \$652 \$615 VSS sg13_lv_nmos W=2.0 L=0.13
* device instance $196 r0 *1 478.065,423.25 sg13_lv_nmos
M$196 \$618 \$693 \$755 VSS sg13_lv_nmos W=2.0 L=0.13
* device instance $197 r0 *1 482.645,423.25 sg13_lv_nmos
M$197 \$755 \$173 \$795 VSS sg13_lv_nmos W=2.0 L=0.13
* device instance $198 r0 *1 452.73,430.97 sg13_lv_nmos
M$198 \$838 \$879 VSS VSS sg13_lv_nmos W=1.44 L=0.13
* device instance $200 r0 *1 453.76,430.97 sg13_lv_nmos
M$200 \$838 \$888 \$847 VSS sg13_lv_nmos W=1.44 L=0.13
* device instance $202 r0 *1 477.92,430.97 sg13_lv_nmos
M$202 \$845 \$844 VSS VSS sg13_lv_nmos W=1.44 L=0.13
* device instance $204 r0 *1 478.95,430.97 sg13_lv_nmos
M$204 \$845 \$842 \$848 VSS sg13_lv_nmos W=1.44 L=0.13
* device instance $206 r0 *1 455.995,430.995 sg13_lv_nmos
M$206 VSS \$847 \$839 VSS sg13_lv_nmos W=2.96 L=0.13
* device instance $210 r0 *1 459.41,430.995 sg13_lv_nmos
M$210 VSS \$839 \$840 VSS sg13_lv_nmos W=2.96 L=0.13
* device instance $214 r0 *1 462.645,430.995 sg13_lv_nmos
M$214 VSS \$840 \$841 VSS sg13_lv_nmos W=2.96 L=0.13
* device instance $218 r0 *1 466.17,430.995 sg13_lv_nmos
M$218 VSS \$841 \$842 VSS sg13_lv_nmos W=2.96 L=0.13
* device instance $222 r0 *1 470.03,430.995 sg13_lv_nmos
M$222 VSS \$842 \$843 VSS sg13_lv_nmos W=2.96 L=0.13
* device instance $226 r0 *1 474,430.995 sg13_lv_nmos
M$226 VSS \$843 \$844 VSS sg13_lv_nmos W=2.96 L=0.13
* device instance $230 r0 *1 481.6,430.995 sg13_lv_nmos
M$230 VSS \$848 \$846 VSS sg13_lv_nmos W=2.96 L=0.13
* device instance $234 r0 *1 485,430.995 sg13_lv_nmos
M$234 VSS \$846 \$693 VSS sg13_lv_nmos W=5.920000000000001 L=0.13
* device instance $242 r0 *1 446.845,438.965 sg13_lv_nmos
M$242 VSS \$175 \$879 VSS sg13_lv_nmos W=1.48 L=0.13
* device instance $244 r0 *1 449.365,438.965 sg13_lv_nmos
M$244 VSS \$879 \$880 VSS sg13_lv_nmos W=1.48 L=0.13
* device instance $246 r0 *1 452.01,438.94 sg13_lv_nmos
M$246 \$881 \$880 VSS VSS sg13_lv_nmos W=1.44 L=0.13
* device instance $248 r0 *1 453.04,438.94 sg13_lv_nmos
M$248 \$881 \$844 \$882 VSS sg13_lv_nmos W=1.44 L=0.13
* device instance $250 r0 *1 455.375,438.965 sg13_lv_nmos
M$250 VSS \$882 \$883 VSS sg13_lv_nmos W=2.96 L=0.13
* device instance $254 r0 *1 459.84,438.965 sg13_lv_nmos
M$254 VSS \$883 \$884 VSS sg13_lv_nmos W=2.96 L=0.13
* device instance $258 r0 *1 463.255,438.965 sg13_lv_nmos
M$258 VSS \$884 \$885 VSS sg13_lv_nmos W=2.96 L=0.13
* device instance $262 r0 *1 466.775,438.965 sg13_lv_nmos
M$262 VSS \$885 \$886 VSS sg13_lv_nmos W=2.96 L=0.13
* device instance $266 r0 *1 470.635,438.965 sg13_lv_nmos
M$266 VSS \$886 \$887 VSS sg13_lv_nmos W=2.96 L=0.13
* device instance $270 r0 *1 474.605,438.965 sg13_lv_nmos
M$270 VSS \$887 \$888 VSS sg13_lv_nmos W=2.96 L=0.13
* device instance $274 r0 *1 478.275,438.94 sg13_lv_nmos
M$274 \$889 \$888 VSS VSS sg13_lv_nmos W=1.44 L=0.13
* device instance $276 r0 *1 479.305,438.94 sg13_lv_nmos
M$276 \$889 \$886 \$890 VSS sg13_lv_nmos W=1.44 L=0.13
* device instance $278 r0 *1 481.955,438.965 sg13_lv_nmos
M$278 VSS \$890 \$891 VSS sg13_lv_nmos W=2.96 L=0.13
* device instance $282 r0 *1 485.355,438.965 sg13_lv_nmos
M$282 VSS \$891 \$652 VSS sg13_lv_nmos W=5.920000000000001 L=0.13
* device instance $290 r0 *1 450.19,456.17 sg13_lv_nmos
M$290 VSS \$943 \$1041 VSS sg13_lv_nmos W=2.0 L=0.13
* device instance $291 r0 *1 450.19,450.37 sg13_lv_nmos
M$291 VSS \$988 \$1010 VSS sg13_lv_nmos W=2.0 L=0.13
* device instance $292 r0 *1 449.325,446.44 sg13_lv_nmos
M$292 VSS \$973 \$627 VSS sg13_lv_nmos W=1.48 L=0.13
* device instance $294 r0 *1 450.345,446.49 sg13_lv_nmos
M$294 VSS \$1014 \$973 VSS sg13_lv_nmos W=0.64 L=0.13
* device instance $295 r0 *1 450.235,453.87 sg13_lv_nmos
M$295 \$1014 \$1044 \$1010 VSS sg13_lv_nmos W=2.0 L=0.13
* device instance $296 r0 *1 450.235,459.67 sg13_lv_nmos
M$296 \$1044 \$1014 \$1041 VSS sg13_lv_nmos W=2.0 L=0.13
* device instance $297 r0 *1 452.325,446.26 sg13_lv_nmos
M$297 \$953 \$1014 \$963 VSS sg13_lv_nmos W=0.42 L=0.13
* device instance $298 r0 *1 452.635,446.26 sg13_lv_nmos
M$298 \$963 \$946 VSS VSS sg13_lv_nmos W=0.42 L=0.13
* device instance $299 r0 *1 453.215,446.645 sg13_lv_nmos
M$299 VSS \$974 \$948 VSS sg13_lv_nmos W=0.74 L=0.13
* device instance $300 r0 *1 454.305,446.325 sg13_lv_nmos
M$300 VSS \$946 \$964 VSS sg13_lv_nmos W=0.42 L=0.13
* device instance $301 r0 *1 454.615,446.325 sg13_lv_nmos
M$301 \$964 \$948 \$954 VSS sg13_lv_nmos W=0.42 L=0.13
* device instance $302 r0 *1 455.39,447.05 sg13_lv_nmos
M$302 \$953 \$947 \$974 VSS sg13_lv_nmos W=0.42 L=0.13
* device instance $303 r0 *1 455.9,447.05 sg13_lv_nmos
M$303 \$974 \$984 \$954 VSS sg13_lv_nmos W=0.42 L=0.13
* device instance $304 r0 *1 457.16,446.525 sg13_lv_nmos
M$304 VSS \$947 \$984 VSS sg13_lv_nmos W=0.74 L=0.13
* device instance $305 r0 *1 458.26,446.525 sg13_lv_nmos
M$305 VSS \$652 \$947 VSS sg13_lv_nmos W=0.74 L=0.13
* device instance $306 r0 *1 459.47,446.645 sg13_lv_nmos
M$306 \$956 \$947 \$955 VSS sg13_lv_nmos W=0.42 L=0.13
* device instance $307 r0 *1 460.005,446.485 sg13_lv_nmos
M$307 \$948 \$984 \$956 VSS sg13_lv_nmos W=0.74 L=0.13
* device instance $308 r0 *1 461.055,446.26 sg13_lv_nmos
M$308 \$955 \$957 VSS VSS sg13_lv_nmos W=0.42 L=0.13
* device instance $309 r0 *1 461.565,446.26 sg13_lv_nmos
M$309 VSS \$946 \$966 VSS sg13_lv_nmos W=0.42 L=0.13
* device instance $310 r0 *1 461.875,446.26 sg13_lv_nmos
M$310 \$966 \$956 \$957 VSS sg13_lv_nmos W=0.42 L=0.13
* device instance $311 r0 *1 463.915,446.37 sg13_lv_nmos
M$311 VSS \$956 \$959 VSS sg13_lv_nmos W=0.64 L=0.13
* device instance $312 r0 *1 462.895,446.42 sg13_lv_nmos
M$312 VSS \$956 \$958 VSS sg13_lv_nmos W=1.48 L=0.13
* device instance $314 r0 *1 464.935,446.42 sg13_lv_nmos
M$314 VSS \$959 \$645 VSS sg13_lv_nmos W=1.48 L=0.13
* device instance $316 r0 *1 467.705,446.44 sg13_lv_nmos
M$316 VSS \$173 \$946 VSS sg13_lv_nmos W=0.74 L=0.13
* device instance $317 r0 *1 469.14,446.44 sg13_lv_nmos
M$317 VSS \$652 \$960 VSS sg13_lv_nmos W=0.74 L=0.13
* device instance $318 r0 *1 469.695,451.055 sg13_lv_nmos
M$318 \$961 \$652 \$795 VSS sg13_lv_nmos W=2.0 L=0.13
* device instance $319 r0 *1 479.86,451.33 sg13_lv_nmos
M$319 VSS \$697 \$1003 VSS sg13_lv_nmos W=2.0 L=1.0
* device instance $320 r0 *1 479.86,445.67 sg13_lv_nmos
M$320 VSS \$961 \$942 VSS sg13_lv_nmos W=2.0 L=1.0
* device instance $321 r0 *1 483.42,453 sg13_lv_nmos
M$321 \$988 \$943 \$1017 VSS sg13_lv_nmos W=2.0 L=0.13
* device instance $322 r0 *1 483.42,447.34 sg13_lv_nmos
M$322 \$943 \$988 \$962 VSS sg13_lv_nmos W=2.0 L=0.13
* device instance $323 r0 *1 485.065,453 sg13_lv_nmos
M$323 \$1017 \$693 \$1003 VSS sg13_lv_nmos W=2.0 L=0.13
* device instance $324 r0 *1 485.065,447.34 sg13_lv_nmos
M$324 \$962 \$693 \$942 VSS sg13_lv_nmos W=2.0 L=0.13
* device instance $325 r0 *1 1060.995,497.48 sg13_lv_nmos
M$325 \$1083 \$1085 VSS VSS sg13_lv_nmos W=2.75 L=0.13
* device instance $326 r0 *1 1060.995,500.99 sg13_lv_nmos
M$326 \$1111 \$1085 VSS VSS sg13_lv_nmos W=2.75 L=0.13
* device instance $327 r0 *1 485.62,504.425 sg13_lv_nmos
M$327 \$1135 \$1145 \$1151 VSS sg13_lv_nmos W=0.42 L=0.13
* device instance $328 r0 *1 486.01,504.425 sg13_lv_nmos
M$328 \$1151 \$1136 VSS VSS sg13_lv_nmos W=0.42 L=0.13
* device instance $329 r0 *1 486.57,504.425 sg13_lv_nmos
M$329 VSS \$1122 \$1150 VSS sg13_lv_nmos W=0.42 L=0.13
* device instance $330 r0 *1 486.925,504.425 sg13_lv_nmos
M$330 \$1150 \$1135 \$1136 VSS sg13_lv_nmos W=0.42 L=0.13
* device instance $331 r0 *1 483.98,504.535 sg13_lv_nmos
M$331 VSS \$1133 \$1134 VSS sg13_lv_nmos W=0.64 L=0.13
* device instance $332 r0 *1 484.65,504.535 sg13_lv_nmos
M$332 \$1134 \$1128 \$1135 VSS sg13_lv_nmos W=0.64 L=0.13
* device instance $333 r0 *1 482.1,504.65 sg13_lv_nmos
M$333 \$1132 \$1145 \$1133 VSS sg13_lv_nmos W=0.42 L=0.13
* device instance $334 r0 *1 482.61,504.65 sg13_lv_nmos
M$334 \$1133 \$1128 \$1149 VSS sg13_lv_nmos W=0.42 L=0.13
* device instance $335 r0 *1 483,504.65 sg13_lv_nmos
M$335 \$1149 \$1134 \$1148 VSS sg13_lv_nmos W=0.42 L=0.13
* device instance $336 r0 *1 483.36,504.65 sg13_lv_nmos
M$336 VSS \$1122 \$1148 VSS sg13_lv_nmos W=0.42 L=0.13
* device instance $337 r0 *1 476.77,504.59 sg13_lv_nmos
M$337 VSS \$1305 \$1131 VSS sg13_lv_nmos W=0.74 L=0.13
* device instance $338 r0 *1 487.965,504.59 sg13_lv_nmos
M$338 VSS \$1135 \$1137 VSS sg13_lv_nmos W=0.74 L=0.13
* device instance $339 r0 *1 489.165,504.495 sg13_lv_nmos
M$339 \$1138 \$1135 VSS VSS sg13_lv_nmos W=0.55 L=0.12999999999999998
* device instance $340 r0 *1 489.705,504.59 sg13_lv_nmos
M$340 VSS \$1138 \$1139 VSS sg13_lv_nmos W=0.74 L=0.13
* device instance $341 r0 *1 491.9,504.59 sg13_lv_nmos
M$341 VSS \$1139 \$1085 VSS sg13_lv_nmos W=1.48 L=0.13
* device instance $343 r0 *1 494.695,504.59 sg13_lv_nmos
M$343 VSS \$173 \$1122 VSS sg13_lv_nmos W=0.74 L=0.13
* device instance $344 r0 *1 496.61,504.59 sg13_lv_nmos
M$344 VSS \$1152 \$1140 VSS sg13_lv_nmos W=1.48 L=0.13
* device instance $346 r0 *1 497.63,504.64 sg13_lv_nmos
M$346 VSS \$1204 \$1152 VSS sg13_lv_nmos W=0.64 L=0.13
* device instance $347 r0 *1 478.82,504.45 sg13_lv_nmos
M$347 \$1132 \$1204 \$1147 VSS sg13_lv_nmos W=0.42 L=0.13
* device instance $348 r0 *1 479.19,504.45 sg13_lv_nmos
M$348 \$1147 \$1122 VSS VSS sg13_lv_nmos W=0.42 L=0.13
* device instance $349 r0 *1 480.335,504.765 sg13_lv_nmos
M$349 VSS \$1305 \$1145 VSS sg13_lv_nmos W=0.74 L=0.13
* device instance $350 r0 *1 480.845,504.765 sg13_lv_nmos
M$350 VSS \$1145 \$1128 VSS sg13_lv_nmos W=0.74 L=0.13
* device instance $351 r0 *1 481.505,510.995 sg13_lv_nmos
M$351 VSS \$1189 \$1192 VSS sg13_lv_nmos W=2.0 L=1.0
* device instance $352 r0 *1 481.705,513.1 sg13_lv_nmos
M$352 \$1192 \$1243 \$1198 VSS sg13_lv_nmos W=2.0 L=0.13
* device instance $353 r0 *1 483.505,509.465 sg13_lv_nmos
M$353 \$1182 \$1305 \$1183 VSS sg13_lv_nmos W=2.0 L=0.13
* device instance $354 r0 *1 482.905,513.1 sg13_lv_nmos
M$354 \$1198 \$1200 \$1199 VSS sg13_lv_nmos W=2.0 L=0.13
* device instance $355 r0 *1 484.105,513.1 sg13_lv_nmos
M$355 \$1200 \$1199 \$1201 VSS sg13_lv_nmos W=2.0 L=0.13
* device instance $356 r0 *1 485.505,510.995 sg13_lv_nmos
M$356 VSS \$1183 \$1193 VSS sg13_lv_nmos W=2.0 L=1.0
* device instance $357 r0 *1 485.305,513.1 sg13_lv_nmos
M$357 \$1201 \$1243 \$1193 VSS sg13_lv_nmos W=2.0 L=0.13
* device instance $358 r0 *1 488.56,513.1 sg13_lv_nmos
M$358 VSS \$1200 \$1202 VSS sg13_lv_nmos W=2.0 L=0.13
* device instance $359 r0 *1 489.76,513.1 sg13_lv_nmos
M$359 \$1202 \$1204 \$1203 VSS sg13_lv_nmos W=2.0 L=0.13
* device instance $360 r0 *1 490.96,513.1 sg13_lv_nmos
M$360 \$1204 \$1203 \$1205 VSS sg13_lv_nmos W=2.0 L=0.13
* device instance $361 r0 *1 492.16,513.1 sg13_lv_nmos
M$361 \$1205 \$1199 VSS VSS sg13_lv_nmos W=2.0 L=0.13
* device instance $362 r0 *1 438.155,518.845 sg13_lv_nmos
M$362 VSS \$1234 \$1235 VSS sg13_lv_nmos W=2.96 L=0.13
* device instance $366 r0 *1 441.035,518.845 sg13_lv_nmos
M$366 VSS \$1235 \$1236 VSS sg13_lv_nmos W=2.96 L=0.13
* device instance $370 r0 *1 443.915,518.845 sg13_lv_nmos
M$370 VSS \$1236 \$1237 VSS sg13_lv_nmos W=2.96 L=0.13
* device instance $374 r0 *1 446.795,518.845 sg13_lv_nmos
M$374 VSS \$1237 \$1238 VSS sg13_lv_nmos W=2.96 L=0.13
* device instance $378 r0 *1 449.675,518.845 sg13_lv_nmos
M$378 VSS \$1238 \$1239 VSS sg13_lv_nmos W=2.96 L=0.13
* device instance $382 r0 *1 452.555,518.845 sg13_lv_nmos
M$382 VSS \$1239 \$1240 VSS sg13_lv_nmos W=2.96 L=0.13
* device instance $386 r0 *1 458.315,518.845 sg13_lv_nmos
M$386 VSS \$1241 \$1242 VSS sg13_lv_nmos W=2.96 L=0.13
* device instance $390 r0 *1 461.135,518.845 sg13_lv_nmos
M$390 VSS \$1242 \$1243 VSS sg13_lv_nmos W=5.920000000000001 L=0.13
* device instance $398 r0 *1 431.455,521.28 sg13_lv_nmos
M$398 VSS \$174 \$1249 VSS sg13_lv_nmos W=1.48 L=0.13
* device instance $400 r0 *1 433.375,521.28 sg13_lv_nmos
M$400 VSS \$1249 \$1295 VSS sg13_lv_nmos W=1.48 L=0.13
* device instance $402 r0 *1 435.35,521.255 sg13_lv_nmos
M$402 \$1296 \$1240 VSS VSS sg13_lv_nmos W=1.44 L=0.13
* device instance $404 r0 *1 436.38,521.255 sg13_lv_nmos
M$404 \$1296 \$1295 \$1308 VSS sg13_lv_nmos W=1.44 L=0.13
* device instance $406 r0 *1 435.35,518.87 sg13_lv_nmos
M$406 \$1264 \$1302 VSS VSS sg13_lv_nmos W=1.44 L=0.13
* device instance $408 r0 *1 436.38,518.87 sg13_lv_nmos
M$408 \$1264 \$1249 \$1234 VSS sg13_lv_nmos W=1.44 L=0.13
* device instance $410 r0 *1 438.155,521.28 sg13_lv_nmos
M$410 VSS \$1308 \$1297 VSS sg13_lv_nmos W=2.96 L=0.13
* device instance $414 r0 *1 441.035,521.28 sg13_lv_nmos
M$414 VSS \$1297 \$1298 VSS sg13_lv_nmos W=2.96 L=0.13
* device instance $418 r0 *1 443.915,521.28 sg13_lv_nmos
M$418 VSS \$1298 \$1299 VSS sg13_lv_nmos W=2.96 L=0.13
* device instance $422 r0 *1 446.795,521.28 sg13_lv_nmos
M$422 VSS \$1299 \$1300 VSS sg13_lv_nmos W=2.96 L=0.13
* device instance $426 r0 *1 449.675,521.28 sg13_lv_nmos
M$426 VSS \$1300 \$1301 VSS sg13_lv_nmos W=2.96 L=0.13
* device instance $430 r0 *1 452.555,521.28 sg13_lv_nmos
M$430 VSS \$1301 \$1302 VSS sg13_lv_nmos W=2.96 L=0.13
* device instance $434 r0 *1 455.51,518.87 sg13_lv_nmos
M$434 \$1265 \$1240 VSS VSS sg13_lv_nmos W=1.44 L=0.13
* device instance $436 r0 *1 456.54,518.87 sg13_lv_nmos
M$436 \$1265 \$1238 \$1241 VSS sg13_lv_nmos W=1.44 L=0.13
* device instance $438 r0 *1 455.51,521.255 sg13_lv_nmos
M$438 \$1303 \$1302 VSS VSS sg13_lv_nmos W=1.44 L=0.13
* device instance $440 r0 *1 456.54,521.255 sg13_lv_nmos
M$440 \$1303 \$1300 \$1309 VSS sg13_lv_nmos W=1.44 L=0.13
* device instance $442 r0 *1 458.315,521.28 sg13_lv_nmos
M$442 VSS \$1309 \$1304 VSS sg13_lv_nmos W=2.96 L=0.13
* device instance $446 r0 *1 461.135,521.28 sg13_lv_nmos
M$446 VSS \$1304 \$1305 VSS sg13_lv_nmos W=5.920000000000001 L=0.13
* device instance $454 r0 *1 431.5,535.26 sg13_lv_nmos
M$454 VSS \$1305 \$1351 VSS sg13_lv_nmos W=0.74 L=0.13
* device instance $455 r0 *1 432.935,535.355 sg13_lv_nmos
M$455 VSS \$1139 \$1352 VSS sg13_lv_nmos W=0.55 L=0.12999999999999998
* device instance $456 r0 *1 433.785,535.26 sg13_lv_nmos
M$456 VSS \$1243 \$1370 VSS sg13_lv_nmos W=0.74 L=0.13
* device instance $457 r0 *1 434.095,535.26 sg13_lv_nmos
M$457 \$1370 \$1352 \$1353 VSS sg13_lv_nmos W=0.74 L=0.13
* device instance $458 r0 *1 434.07,553.205 sg13_lv_nmos
M$458 \$1401 \$1355 PAD|VLO VSS sg13_lv_nmos W=0.5 L=0.13
* device instance $459 r0 *1 435.785,535.42 sg13_lv_nmos
M$459 \$1354 \$1243 \$1368 VSS sg13_lv_nmos W=0.64 L=0.13
* device instance $460 r0 *1 436.295,535.42 sg13_lv_nmos
M$460 VSS \$1139 \$1368 VSS sg13_lv_nmos W=0.64 L=0.13
* device instance $461 r0 *1 436.805,535.37 sg13_lv_nmos
M$461 VSS \$1354 \$1355 VSS sg13_lv_nmos W=0.74 L=0.13
* device instance $462 r0 *1 436.815,553.215 sg13_lv_nmos
M$462 \$1401 \$1305 CORE$6 VSS sg13_lv_nmos W=2.0 L=0.13
* device instance $463 r0 *1 443.55,535.275 sg13_lv_nmos
M$463 VSS \$1356 \$1356 VSS sg13_lv_nmos W=2.5 L=1.5
* device instance $464 r0 *1 444.09,553.17 sg13_lv_nmos
M$464 \$1356 \$1301 \$1412 VSS sg13_lv_nmos W=2.0 L=0.13
* device instance $465 r0 *1 449.83,597.155 sg13_lv_nmos
M$465 \$1478 \$1532 VSS VSS sg13_lv_nmos W=1.44 L=0.13
* device instance $467 r0 *1 450.86,597.155 sg13_lv_nmos
M$467 \$1478 \$1488 \$1489 VSS sg13_lv_nmos W=1.44 L=0.13
* device instance $469 r0 *1 455.2,535.26 sg13_lv_nmos
M$469 VSS \$1377 \$1372 VSS sg13_lv_nmos W=2.5 L=1.5
* device instance $470 r0 *1 454.14,553.165 sg13_lv_nmos